

        *** GPGPU-Sim Simulator Version 3.2.2  [build 0] ***


GPGPU-Sim PTX: simulation mode 0 (can change with PTX_SIM_MODE_FUNC environment variable:
               1=functional simulation only, 0=detailed performance simulator)
GPGPU-Sim: Configuration options:

-network_mode                           1 # Interconnection network mode
-inter_config_file   config_fermi_islip.icnt # Interconnection network config file
-gpgpu_ptx_use_cuobjdump                    1 # Use cuobjdump to extract ptx and sass from binaries
-gpgpu_experimental_lib_support                    0 # Try to extract code from cuda libraries [Broken because of unknown cudaGetExportTable]
-gpgpu_ptx_convert_to_ptxplus                    0 # Convert SASS (native ISA) to ptxplus and run ptxplus
-gpgpu_ptx_force_max_capability                   20 # Force maximum compute capability
-gpgpu_ptx_inst_debug_to_file                    0 # Dump executed instructions' debug information to file
-gpgpu_ptx_inst_debug_file       inst_debug.txt # Executed instructions' debug output file
-gpgpu_ptx_inst_debug_thread_uid                    1 # Thread UID for executed instructions' debug output
-gpgpu_simd_model                       1 # 1 = post-dominator
-gpgpu_shader_core_pipeline              1536:32 # shader core pipeline config, i.e., {<nthread>:<warpsize>}
-gpgpu_tex_cache:l1  4:128:24,L:R:m:N:L,F:128:4,128:2 # per-shader L1 texture cache  (READ-ONLY) config  {<nsets>:<bsize>:<assoc>,<rep>:<wr>:<alloc>:<wr_alloc>,<mshr>:<N>:<merge>,<mq>:<rf>}
-gpgpu_const_cache:l1 64:64:2,L:R:f:N:L,A:2:32,4 # per-shader L1 constant memory cache  (READ-ONLY) config  {<nsets>:<bsize>:<assoc>,<rep>:<wr>:<alloc>:<wr_alloc>,<mshr>:<N>:<merge>,<mq>} 
-gpgpu_cache:il1     4:128:4,L:R:f:N:L,A:2:32,4 # shader L1 instruction cache config  {<nsets>:<bsize>:<assoc>,<rep>:<wr>:<alloc>:<wr_alloc>,<mshr>:<N>:<merge>,<mq>} 
-gpgpu_cache:dl1     32:128:4,L:L:m:N:H,A:32:8,8 # per-shader L1 data cache config  {<nsets>:<bsize>:<assoc>,<rep>:<wr>:<alloc>:<wr_alloc>,<mshr>:<N>:<merge>,<mq> | none}
-gpgpu_cache:dl1PrefL1                 none # per-shader L1 data cache config  {<nsets>:<bsize>:<assoc>,<rep>:<wr>:<alloc>:<wr_alloc>,<mshr>:<N>:<merge>,<mq> | none}
-gpgpu_cache:dl1PreShared                 none # per-shader L1 data cache config  {<nsets>:<bsize>:<assoc>,<rep>:<wr>:<alloc>:<wr_alloc>,<mshr>:<N>:<merge>,<mq> | none}
-gmem_skip_L1D                          0 # global memory access skip L1D cache (implements -Xptxas -dlcm=cg, default=no skip)
-gpgpu_perfect_mem                      0 # enable perfect memory mode (no cache miss)
-n_regfile_gating_group                    4 # group of lanes that should be read/written together)
-gpgpu_clock_gated_reg_file                    0 # enable clock gated reg file for power calculations
-gpgpu_clock_gated_lanes                    0 # enable clock gated lanes for power calculations
-gpgpu_shader_registers                32768 # Number of registers per shader core. Limits number of concurrent CTAs. (default 8192)
-gpgpu_shader_cta                       8 # Maximum number of concurrent CTAs in shader (default 8)
-gpgpu_num_cta_barriers                   16 # Maximum number of named barriers per CTA (default 16)
-gpgpu_n_clusters                      15 # number of processing clusters
-gpgpu_n_cores_per_cluster                    1 # number of simd cores per cluster
-gpgpu_n_cluster_ejection_buffer_size                    8 # number of packets in ejection buffer
-gpgpu_n_ldst_response_buffer_size                    2 # number of response packets in ld/st unit ejection buffer
-gpgpu_shmem_size                   16384 # Size of shared memory per shader core (default 16kB)
-gpgpu_shmem_size                   49152 # Size of shared memory per shader core (default 16kB)
-gpgpu_shmem_size_PrefL1                16384 # Size of shared memory per shader core (default 16kB)
-gpgpu_shmem_size_PrefShared                16384 # Size of shared memory per shader core (default 16kB)
-gpgpu_shmem_num_banks                   32 # Number of banks in the shared memory in each shader core (default 16)
-gpgpu_shmem_limited_broadcast                    0 # Limit shared memory to do one broadcast per cycle (default on)
-gpgpu_shmem_warp_parts                    1 # Number of portions a warp is divided into for shared memory bank conflict check 
-gpgpu_warpdistro_shader                   -1 # Specify which shader core to collect the warp size distribution from
-gpgpu_warp_issue_shader                    0 # Specify which shader core to collect the warp issue distribution from
-gpgpu_local_mem_map                    1 # Mapping from local memory space address to simulated GPU physical address space (default = enabled)
-gpgpu_num_reg_banks                   16 # Number of register banks (default = 8)
-gpgpu_reg_bank_use_warp_id                    0 # Use warp ID in mapping registers to banks (default = off)
-gpgpu_operand_collector_num_units_sp                    6 # number of collector units (default = 4)
-gpgpu_operand_collector_num_units_sfu                    8 # number of collector units (default = 4)
-gpgpu_operand_collector_num_units_mem                    2 # number of collector units (default = 2)
-gpgpu_operand_collector_num_units_gen                    0 # number of collector units (default = 0)
-gpgpu_operand_collector_num_in_ports_sp                    2 # number of collector unit in ports (default = 1)
-gpgpu_operand_collector_num_in_ports_sfu                    1 # number of collector unit in ports (default = 1)
-gpgpu_operand_collector_num_in_ports_mem                    1 # number of collector unit in ports (default = 1)
-gpgpu_operand_collector_num_in_ports_gen                    0 # number of collector unit in ports (default = 0)
-gpgpu_operand_collector_num_out_ports_sp                    2 # number of collector unit in ports (default = 1)
-gpgpu_operand_collector_num_out_ports_sfu                    1 # number of collector unit in ports (default = 1)
-gpgpu_operand_collector_num_out_ports_mem                    1 # number of collector unit in ports (default = 1)
-gpgpu_operand_collector_num_out_ports_gen                    0 # number of collector unit in ports (default = 0)
-gpgpu_coalesce_arch                   13 # Coalescing arch (default = 13, anything else is off for now)
-gpgpu_num_sched_per_core                    2 # Number of warp schedulers per core
-gpgpu_max_insn_issue_per_warp                    1 # Max number of instructions that can be issued per warp in one cycle by scheduler
-gpgpu_simt_core_sim_order                    1 # Select the simulation order of cores in a cluster (0=Fix, 1=Round-Robin)
-gpgpu_pipeline_widths        2,1,1,2,1,1,2 # Pipeline widths ID_OC_SP,ID_OC_SFU,ID_OC_MEM,OC_EX_SP,OC_EX_SFU,OC_EX_MEM,EX_WB
-gpgpu_num_sp_units                     2 # Number of SP units (default=1)
-gpgpu_num_sfu_units                    1 # Number of SF units (default=1)
-gpgpu_num_mem_units                    1 # Number if ldst units (default=1) WARNING: not hooked up to anything
-gpgpu_scheduler                      lrr # Scheduler configuration: < lrr | gto | two_level_active > If two_level_active:<num_active_warps>:<inner_prioritization>:<outer_prioritization>For complete list of prioritization values see shader.h enum scheduler_prioritization_typeDefault: gto
-gpgpu_dram_scheduler                    1 # 0 = fifo, 1 = FR-FCFS (defaul)
-gpgpu_dram_partition_queues              8:8:8:8 # i2$:$2d:d2$:$2i
-l2_ideal                               0 # Use a ideal L2 cache that always hit
-gpgpu_cache:dl2     64:128:8,L:B:m:W:L,A:32:4,4:0,32 # unified banked L2 data cache config  {<nsets>:<bsize>:<assoc>,<rep>:<wr>:<alloc>:<wr_alloc>,<mshr>:<N>:<merge>,<mq>}
-gpgpu_cache:dl2_texture_only                    0 # L2 cache used for texture only
-gpgpu_n_mem                            6 # number of memory modules (e.g. memory controllers) in gpu
-gpgpu_n_sub_partition_per_mchannel                    2 # number of memory subpartition in each memory module
-gpgpu_n_mem_per_ctrlr                    2 # number of memory chips per memory controller
-gpgpu_memlatency_stat                   14 # track and display latency statistics 0x2 enables MC, 0x4 enables queue logs
-gpgpu_frfcfs_dram_sched_queue_size                   16 # 0 = unlimited (default); # entries per chip
-gpgpu_dram_return_queue_size                  116 # 0 = unlimited (default); # entries per chip
-gpgpu_dram_buswidth                    4 # default = 4 bytes (8 bytes per cycle at DDR)
-gpgpu_dram_burst_length                    8 # Burst length of each DRAM request (default = 4 data bus cycle)
-dram_data_command_freq_ratio                    4 # Frequency ratio between DRAM data bus and command bus (default = 2 times, i.e. DDR)
-gpgpu_dram_timing_opt nbk=16:CCD=2:RRD=6:RCD=12:RAS=28:RP=12:RC=40: CL=12:WL=4:CDLR=5:WR=12:nbkgrp=4:CCDL=3:RTPL=2 # DRAM timing parameters = {nbk:tCCD:tRRD:tRCD:tRAS:tRP:tRC:CL:WL:tCDLR:tWR:nbkgrp:tCCDL:tRTPL}
-rop_latency                          120 # ROP queue latency (default 85)
-dram_latency                         100 # DRAM latency (default 30)
-gpgpu_mem_addr_mapping dramid@8;00000000.00000000.00000000.00000000.0000RRRR.RRRRRRRR.BBBCCCCB.CCSSSSSS # mapping memory address to dram model {dramid@<start bit>;<memory address map>}
-gpgpu_mem_addr_test                    0 # run sweep test to check address mapping for aliased address
-gpgpu_mem_address_mask                    1 # 0 = old addressing mask, 1 = new addressing mask, 2 = new add. mask + flipped bank sel and chip sel bits
-gpuwattch_xml_file  gpuwattch_gtx480.xml # GPUWattch XML file
-power_simulation_enabled                    0 # Turn on power simulator (1=On, 0=Off)
-power_per_cycle_dump                    0 # Dump detailed power output each cycle
-power_trace_enabled                    0 # produce a file for the power trace (1=On, 0=Off)
-power_trace_zlevel                     6 # Compression level of the power trace output log (0=no comp, 9=highest)
-steady_power_levels_enabled                    0 # produce a file for the steady power levels (1=On, 0=Off)
-steady_state_definition                  8:4 # allowed deviation:number of samples
-gpgpu_max_cycle                        0 # terminates gpu simulation early (0 = no limit)
-gpgpu_max_insn                         0 # terminates gpu simulation early (0 = no limit)
-gpgpu_max_cta                          0 # terminates gpu simulation early (0 = no limit)
-gpgpu_runtime_stat             500000000 # display runtime statistics such as dram utilization {<freq>:<flag>}
-liveness_message_freq                    1 # Minimum number of seconds between simulation liveness messages (0 = always print)
-gpgpu_flush_l1_cache                    0 # Flush L1 cache at the end of each kernel call
-gpgpu_flush_l2_cache                    0 # Flush L2 cache at the end of each kernel call
-gpgpu_deadlock_detect                    1 # Stop the simulation at deadlock (1=on (default), 0=off)
-gpgpu_ptx_instruction_classification                    0 # if enabled will classify ptx instruction types per kernel (Max 255 kernels now)
-gpgpu_ptx_sim_mode                     0 # Select between Performance (default) or Functional simulation (1)
-gpgpu_clock_domains 730.0:730.0:730.0:950.0 # Clock Domain Frequencies in MhZ {<Core Clock>:<ICNT Clock>:<L2 Clock>:<DRAM Clock>}
-gpgpu_max_concurrent_kernel                    8 # maximum kernels that can run concurrently on GPU
-gpgpu_cflog_interval                    0 # Interval between each snapshot in control flow logger
-visualizer_enabled                     0 # Turn on visualizer output (1=On, 0=Off)
-visualizer_outputfile                 NULL # Specifies the output log file for visualizer
-visualizer_zlevel                      6 # Compression level of the visualizer output log (0=no comp, 9=highest)
-trace_enabled                          0 # Turn on traces
-trace_components                    none # comma seperated list of traces to enable. Complete list found in trace_streams.tup. Default none
-trace_sampling_core                    0 # The core which is printed using CORE_DPRINTF. Default 0
-trace_sampling_memory_partition                   -1 # The memory partition which is printed using MEMPART_DPRINTF. Default -1 (i.e. all)
-enable_ptx_file_line_stats                    0 # Turn on PTX source line statistic profiling. (1 = On)
-ptx_line_stats_filename gpgpu_inst_stats.txt # Output file for PTX source line statistics.
-save_embedded_ptx                      0 # saves ptx files embedded in binary as <n>.ptx
-keep                                   0 # keep intermediate files created by GPGPU-Sim when interfacing with external programs
-gpgpu_ptx_save_converted_ptxplus                    0 # Saved converted ptxplus to a file
-ptx_opcode_latency_int         4,13,4,5,145 # Opcode latencies for integers <ADD,MAX,MUL,MAD,DIV>Default 1,1,19,25,145
-ptx_opcode_latency_fp          4,13,4,5,39 # Opcode latencies for single precision floating points <ADD,MAX,MUL,MAD,DIV>Default 1,1,1,1,30
-ptx_opcode_latency_dp         8,19,8,8,330 # Opcode latencies for double precision floating points <ADD,MAX,MUL,MAD,DIV>Default 8,8,8,8,335
-ptx_opcode_initiation_int            1,2,2,1,8 # Opcode initiation intervals for integers <ADD,MAX,MUL,MAD,DIV>Default 1,1,4,4,32
-ptx_opcode_initiation_fp            1,2,1,1,4 # Opcode initiation intervals for single precision floating points <ADD,MAX,MUL,MAD,DIV>Default 1,1,1,1,5
-ptx_opcode_initiation_dp         8,16,8,8,130 # Opcode initiation intervals for double precision floating points <ADD,MAX,MUL,MAD,DIV>Default 8,8,8,8,130
DRAM Timing Options:
nbk                                    16 # number of banks
CCD                                     2 # column to column delay
RRD                                     6 # minimal delay between activation of rows in different banks
RCD                                    12 # row to column delay
RAS                                    28 # time needed to activate row
RP                                     12 # time needed to precharge (deactivate) row
RC                                     40 # row cycle time
CDLR                                    5 # switching from write to read (changes tWTR)
WR                                     12 # last data-in to row precharge
CL                                     12 # CAS latency
WL                                      4 # Write latency
nbkgrp                                  4 # number of bank groups
CCDL                                    3 # column to column delay between accesses to different bank groups
RTPL                                    2 # read to precharge delay between accesses to different bank groups
Total number of memory sub partition = 12
addr_dec_mask[CHIP]  = 0000000000000000 	high:64 low:0
addr_dec_mask[BK]    = 000000000000e100 	high:16 low:8
addr_dec_mask[ROW]   = 000000000fff0000 	high:28 low:16
addr_dec_mask[COL]   = 0000000000001eff 	high:13 low:0
addr_dec_mask[BURST] = 000000000000003f 	high:6 low:0
sub_partition_id_mask = 0000000000000100
GPGPU-Sim uArch: clock freqs: 730000000.000000:730000000.000000:730000000.000000:950000000.000000
GPGPU-Sim uArch: clock periods: 0.00000000136986301370:0.00000000136986301370:0.00000000136986301370:0.00000000105263157895
*** Initializing Memory Statistics ***
GPGPU-Sim uArch: interconnect node map (shaderID+MemID to icntID)
GPGPU-Sim uArch: Memory nodes ID start from index: 15
GPGPU-Sim uArch:    0   1   2   3   4
GPGPU-Sim uArch:    5   6   7   8   9
GPGPU-Sim uArch:   10  11  12  13  14
GPGPU-Sim uArch:   15  16  17  18  19
GPGPU-Sim uArch:   20  21  22  23  24
GPGPU-Sim uArch:   25  26
GPGPU-Sim uArch: interconnect node reverse map (icntID to shaderID+MemID)
GPGPU-Sim uArch: Memory nodes start from ID: 15
GPGPU-Sim uArch:    0   1   2   3   4
GPGPU-Sim uArch:    5   6   7   8   9
GPGPU-Sim uArch:   10  11  12  13  14
GPGPU-Sim uArch:   15  16  17  18  19
GPGPU-Sim uArch:   20  21  22  23  24
GPGPU-Sim uArch:   25  26
deb20cb1893cb06524edaf9026f0c8a0  /home/z/Workspace/model_gpu_cache/build/2dconv_sim
GPGPU-Sim uArch: performance model initialization complete.
GPGPU-Sim PTX: __cudaRegisterFatBinary, fat_cubin_handle = 1, filename=2DConvolution.cu
self exe links to: /home/z/Workspace/model_gpu_cache/build/2dconv_sim
Running md5sum using "md5sum /home/z/Workspace/model_gpu_cache/build/2dconv_sim "
Running cuobjdump using "$CUDA_INSTALL_PATH/bin/cuobjdump -ptx -elf -sass /home/z/Workspace/model_gpu_cache/build/2dconv_sim > _cuobjdump_complete_output_HxUIro"
Parsing file _cuobjdump_complete_output_HxUIro
######### cuobjdump parser ########
## Adding new section ELF
Adding arch: sm_20
Adding identifier: 2DConvolution.cu
## Adding new section PTX
Adding ptx filename: _cuobjdump_1.ptx
Adding arch: sm_20
Adding identifier: 2DConvolution.cu
Done parsing!!!
GPGPU-Sim PTX: __cudaRegisterFunction _Z20Convolution2D_kernelPfS_ : hostFun 0x0x401570, fat_cubin_handle = 1
GPGPU-Sim PTX: instruction assembly for function '_Z20Convolution2D_kernelPfS_'...   done.
GPGPU-Sim PTX: finding reconvergence points for '_Z20Convolution2D_kernelPfS_'...
GPGPU-Sim PTX: Finding dominators for '_Z20Convolution2D_kernelPfS_'...
GPGPU-Sim PTX: Finding immediate dominators for '_Z20Convolution2D_kernelPfS_'...
GPGPU-Sim PTX: Finding postdominators for '_Z20Convolution2D_kernelPfS_'...
GPGPU-Sim PTX: Finding immediate postdominators for '_Z20Convolution2D_kernelPfS_'...
GPGPU-Sim PTX: pre-decoding instructions for '_Z20Convolution2D_kernelPfS_'...
GPGPU-Sim PTX: reconvergence points for _Z20Convolution2D_kernelPfS_...
GPGPU-Sim PTX:  1 (potential) branch divergence @  PC=0x038 (_1.ptx:68) @%p1 bra $Lt_0_3330;
GPGPU-Sim PTX:    immediate post dominator      @  PC=0x1d0 (_1.ptx:123) exit;
GPGPU-Sim PTX:  2 (potential) branch divergence @  PC=0x078 (_1.ptx:76) @%p2 bra $Lt_0_3330;
GPGPU-Sim PTX:    immediate post dominator      @  PC=0x1d0 (_1.ptx:123) exit;
GPGPU-Sim PTX:  3 (potential) branch divergence @  PC=0x090 (_1.ptx:79) @%p3 bra $Lt_0_3330;
GPGPU-Sim PTX:    immediate post dominator      @  PC=0x1d0 (_1.ptx:123) exit;
GPGPU-Sim PTX:  4 (potential) branch divergence @  PC=0x0a8 (_1.ptx:82) @%p4 bra $Lt_0_3330;
GPGPU-Sim PTX:    immediate post dominator      @  PC=0x1d0 (_1.ptx:123) exit;
GPGPU-Sim PTX: ... end of reconvergence points for _Z20Convolution2D_kernelPfS_
GPGPU-Sim PTX: ... done pre-decoding instructions for '_Z20Convolution2D_kernelPfS_'.
GPGPU-Sim PTX: finished parsing EMBEDDED .ptx file _1.ptx
Adding _cuobjdump_1.ptx with cubin handle 1
GPGPU-Sim PTX: extracting embedded .ptx to temporary file "_ptx_2rcz5Q"
Running: cat _ptx_2rcz5Q | sed 's/.version 1.5/.version 1.4/' | sed 's/, texmode_independent//' | sed 's/\(\.extern \.const\[1\] .b8 \w\+\)\[\]/\1\[1\]/' | sed 's/const\[.\]/const\[0\]/g' > _ptx2_juqqJj
GPGPU-Sim PTX: generating ptxinfo using "$CUDA_INSTALL_PATH/bin/ptxas --gpu-name=sm_20 -v _ptx2_juqqJj --output-file  /dev/null 2> _ptx_2rcz5Qinfo"
GPGPU-Sim PTX: Kernel '_Z20Convolution2D_kernelPfS_' : regs=14, lmem=0, smem=0, cmem=80
GPGPU-Sim PTX: removing ptxinfo using "rm -f _ptx_2rcz5Q _ptx2_juqqJj _ptx_2rcz5Qinfo"
GPGPU-Sim PTX: loading globals with explicit initializers... 
GPGPU-Sim PTX: finished loading globals (0 bytes total).
GPGPU-Sim PTX: loading constants with explicit initializers...  done.

GPGPU-Sim PTX: cudaLaunch for 0x0x401570 (mode=performance simulation) on stream 0
GPGPU-Sim PTX: pushing kernel '_Z20Convolution2D_kernelPfS_' to stream 0, gridDim= (32,128,1) blockDim = (32,8,1) 
####  CUstream_st::push: Start pushing kernel: Convolution2D_kernel  ####
kernel '_Z20Convolution2D_kernelPfS_' transfer to GPU hardware scheduler
GPGPU-Sim uArch: Shader 1 bind to kernel 1 '_Z20Convolution2D_kernelPfS_'
GPGPU-Sim uArch: CTA/core = 6, limited by: threads
GPGPU-Sim uArch: core:  1, cta: 0 initialized @(1,0)
GPGPU-Sim uArch: Shader 2 bind to kernel 1 '_Z20Convolution2D_kernelPfS_'
GPGPU-Sim uArch: core:  2, cta: 0 initialized @(1,0)
GPGPU-Sim uArch: Shader 3 bind to kernel 1 '_Z20Convolution2D_kernelPfS_'
GPGPU-Sim uArch: core:  3, cta: 0 initialized @(1,0)
GPGPU-Sim uArch: Shader 4 bind to kernel 1 '_Z20Convolution2D_kernelPfS_'
GPGPU-Sim uArch: core:  4, cta: 0 initialized @(1,0)
GPGPU-Sim uArch: Shader 5 bind to kernel 1 '_Z20Convolution2D_kernelPfS_'
GPGPU-Sim uArch: core:  5, cta: 0 initialized @(1,0)
GPGPU-Sim uArch: Shader 6 bind to kernel 1 '_Z20Convolution2D_kernelPfS_'
GPGPU-Sim uArch: core:  6, cta: 0 initialized @(1,0)
GPGPU-Sim uArch: Shader 7 bind to kernel 1 '_Z20Convolution2D_kernelPfS_'
GPGPU-Sim uArch: core:  7, cta: 0 initialized @(1,0)
GPGPU-Sim uArch: Shader 8 bind to kernel 1 '_Z20Convolution2D_kernelPfS_'
GPGPU-Sim uArch: core:  8, cta: 0 initialized @(1,0)
GPGPU-Sim uArch: Shader 9 bind to kernel 1 '_Z20Convolution2D_kernelPfS_'
GPGPU-Sim uArch: core:  9, cta: 0 initialized @(1,0)
GPGPU-Sim uArch: Shader 10 bind to kernel 1 '_Z20Convolution2D_kernelPfS_'
GPGPU-Sim uArch: core: 10, cta: 0 initialized @(1,0)
GPGPU-Sim uArch: Shader 11 bind to kernel 1 '_Z20Convolution2D_kernelPfS_'
GPGPU-Sim uArch: core: 11, cta: 0 initialized @(1,0)
GPGPU-Sim uArch: Shader 12 bind to kernel 1 '_Z20Convolution2D_kernelPfS_'
GPGPU-Sim uArch: core: 12, cta: 0 initialized @(1,0)
GPGPU-Sim uArch: Shader 13 bind to kernel 1 '_Z20Convolution2D_kernelPfS_'
GPGPU-Sim uArch: core: 13, cta: 0 initialized @(1,0)
GPGPU-Sim uArch: Shader 14 bind to kernel 1 '_Z20Convolution2D_kernelPfS_'
GPGPU-Sim uArch: core: 14, cta: 0 initialized @(1,0)
GPGPU-Sim uArch: Shader 0 bind to kernel 1 '_Z20Convolution2D_kernelPfS_'
GPGPU-Sim uArch: core:  0, cta: 0 initialized @(1,0)
GPGPU-Sim uArch: core:  1, cta: 1 initialized @(2,0)
GPGPU-Sim uArch: core:  2, cta: 1 initialized @(2,0)
GPGPU-Sim uArch: core:  3, cta: 1 initialized @(2,0)
GPGPU-Sim uArch: core:  4, cta: 1 initialized @(2,0)
GPGPU-Sim uArch: core:  5, cta: 1 initialized @(2,0)
GPGPU-Sim uArch: core:  6, cta: 1 initialized @(2,0)
GPGPU-Sim uArch: core:  7, cta: 1 initialized @(2,0)
GPGPU-Sim uArch: core:  8, cta: 1 initialized @(2,0)
GPGPU-Sim uArch: core:  9, cta: 1 initialized @(2,0)
GPGPU-Sim uArch: core: 10, cta: 1 initialized @(2,0)
GPGPU-Sim uArch: core: 11, cta: 1 initialized @(2,0)
GPGPU-Sim uArch: core: 12, cta: 1 initialized @(2,0)
GPGPU-Sim uArch: core: 13, cta: 1 initialized @(2,0)
GPGPU-Sim uArch: core: 14, cta: 1 initialized @(2,0)
GPGPU-Sim uArch: core:  0, cta: 1 initialized @(2,0)
GPGPU-Sim uArch: core:  1, cta: 2 initialized @(3,0)
GPGPU-Sim uArch: core:  2, cta: 2 initialized @(3,0)
GPGPU-Sim uArch: core:  3, cta: 2 initialized @(3,0)
GPGPU-Sim uArch: core:  4, cta: 2 initialized @(3,0)
GPGPU-Sim uArch: core:  5, cta: 2 initialized @(3,0)
GPGPU-Sim uArch: core:  6, cta: 2 initialized @(3,0)
GPGPU-Sim uArch: core:  7, cta: 2 initialized @(3,0)
GPGPU-Sim uArch: core:  8, cta: 2 initialized @(3,0)
GPGPU-Sim uArch: core:  9, cta: 2 initialized @(3,0)
GPGPU-Sim uArch: core: 10, cta: 2 initialized @(3,0)
GPGPU-Sim uArch: core: 11, cta: 2 initialized @(3,0)
GPGPU-Sim uArch: core: 12, cta: 2 initialized @(3,0)
GPGPU-Sim uArch: core: 13, cta: 2 initialized @(3,0)
GPGPU-Sim uArch: core: 14, cta: 2 initialized @(3,0)
GPGPU-Sim uArch: core:  0, cta: 2 initialized @(3,0)
GPGPU-Sim uArch: core:  1, cta: 3 initialized @(4,0)
GPGPU-Sim uArch: core:  2, cta: 3 initialized @(4,0)
GPGPU-Sim uArch: core:  3, cta: 3 initialized @(4,0)
GPGPU-Sim uArch: core:  4, cta: 3 initialized @(4,0)
GPGPU-Sim uArch: core:  5, cta: 3 initialized @(4,0)
GPGPU-Sim uArch: core:  6, cta: 3 initialized @(4,0)
GPGPU-Sim uArch: core:  7, cta: 3 initialized @(4,0)
GPGPU-Sim uArch: core:  8, cta: 3 initialized @(4,0)
GPGPU-Sim uArch: core:  9, cta: 3 initialized @(4,0)
GPGPU-Sim uArch: core: 10, cta: 3 initialized @(4,0)
GPGPU-Sim uArch: core: 11, cta: 3 initialized @(4,0)
GPGPU-Sim uArch: core: 12, cta: 3 initialized @(4,0)
GPGPU-Sim uArch: core: 13, cta: 3 initialized @(4,0)
GPGPU-Sim uArch: core: 14, cta: 3 initialized @(4,0)
GPGPU-Sim uArch: core:  0, cta: 3 initialized @(4,0)
GPGPU-Sim uArch: core:  1, cta: 4 initialized @(5,0)
GPGPU-Sim uArch: core:  2, cta: 4 initialized @(5,0)
GPGPU-Sim uArch: core:  3, cta: 4 initialized @(5,0)
GPGPU-Sim uArch: core:  4, cta: 4 initialized @(5,0)
GPGPU-Sim uArch: core:  5, cta: 4 initialized @(5,0)
GPGPU-Sim uArch: core:  6, cta: 4 initialized @(5,0)
GPGPU-Sim uArch: core:  7, cta: 4 initialized @(5,0)
GPGPU-Sim uArch: core:  8, cta: 4 initialized @(5,0)
GPGPU-Sim uArch: core:  9, cta: 4 initialized @(5,0)
GPGPU-Sim uArch: core: 10, cta: 4 initialized @(5,0)
GPGPU-Sim uArch: core: 11, cta: 4 initialized @(5,0)
GPGPU-Sim uArch: core: 12, cta: 4 initialized @(5,0)
GPGPU-Sim uArch: core: 13, cta: 4 initialized @(5,0)
GPGPU-Sim uArch: core: 14, cta: 4 initialized @(5,0)
GPGPU-Sim uArch: core:  0, cta: 4 initialized @(5,0)
GPGPU-Sim uArch: core:  1, cta: 5 initialized @(6,0)
GPGPU-Sim uArch: core:  2, cta: 5 initialized @(6,0)
GPGPU-Sim uArch: core:  3, cta: 5 initialized @(6,0)
GPGPU-Sim uArch: core:  4, cta: 5 initialized @(6,0)
GPGPU-Sim uArch: core:  5, cta: 5 initialized @(6,0)
GPGPU-Sim uArch: core:  6, cta: 5 initialized @(6,0)
GPGPU-Sim uArch: core:  7, cta: 5 initialized @(6,0)
GPGPU-Sim uArch: core:  8, cta: 5 initialized @(6,0)
GPGPU-Sim uArch: core:  9, cta: 5 initialized @(6,0)
GPGPU-Sim uArch: core: 10, cta: 5 initialized @(6,0)
GPGPU-Sim uArch: core: 11, cta: 5 initialized @(6,0)
GPGPU-Sim uArch: core: 12, cta: 5 initialized @(6,0)
GPGPU-Sim uArch: core: 13, cta: 5 initialized @(6,0)
GPGPU-Sim uArch: core: 14, cta: 5 initialized @(6,0)
GPGPU-Sim uArch: core:  0, cta: 5 initialized @(6,0)
GPGPU-Sim uArch: Shader 2 finished CTA #2 (3860,0), 5 CTAs running
GPGPU-Sim uArch: core:  2, cta: 2 initialized @(3861,0)
GPGPU-Sim uArch: Shader 4 finished CTA #4 (3993,0), 5 CTAs running
GPGPU-Sim uArch: core:  4, cta: 4 initialized @(3994,0)
GPGPU-Sim uArch: Shader 4 finished CTA #3 (4188,0), 5 CTAs running
GPGPU-Sim uArch: core:  4, cta: 3 initialized @(4189,0)
GPGPU-Sim uArch: Shader 3 finished CTA #3 (4244,0), 5 CTAs running
GPGPU-Sim uArch: core:  3, cta: 3 initialized @(4245,0)
GPGPU-Sim uArch: Shader 11 finished CTA #3 (4322,0), 5 CTAs running
GPGPU-Sim uArch: core: 11, cta: 3 initialized @(4323,0)
GPGPU-Sim uArch: Shader 4 finished CTA #5 (4591,0), 5 CTAs running
GPGPU-Sim uArch: core:  4, cta: 5 initialized @(4592,0)
GPGPU-Sim uArch: Shader 10 finished CTA #2 (4640,0), 5 CTAs running
GPGPU-Sim uArch: core: 10, cta: 2 initialized @(4641,0)
GPGPU-Sim uArch: Shader 3 finished CTA #5 (4699,0), 5 CTAs running
GPGPU-Sim uArch: core:  3, cta: 5 initialized @(4700,0)
GPGPU-Sim uArch: Shader 10 finished CTA #1 (4721,0), 5 CTAs running
GPGPU-Sim uArch: core: 10, cta: 1 initialized @(4722,0)
GPGPU-Sim uArch: Shader 9 finished CTA #0 (4746,0), 5 CTAs running
GPGPU-Sim uArch: core:  9, cta: 0 initialized @(4747,0)
GPGPU-Sim uArch: Shader 3 finished CTA #4 (4749,0), 5 CTAs running
GPGPU-Sim uArch: core:  3, cta: 4 initialized @(4750,0)
GPGPU-Sim uArch: Shader 11 finished CTA #2 (4785,0), 5 CTAs running
GPGPU-Sim uArch: core: 11, cta: 2 initialized @(4786,0)
GPGPU-Sim uArch: Shader 2 finished CTA #1 (4787,0), 5 CTAs running
GPGPU-Sim uArch: core:  2, cta: 1 initialized @(4788,0)
GPGPU-Sim uArch: Shader 3 finished CTA #2 (4790,0), 5 CTAs running
GPGPU-Sim uArch: core:  3, cta: 2 initialized @(4791,0)
GPGPU-Sim uArch: Shader 12 finished CTA #3 (4891,0), 5 CTAs running
GPGPU-Sim uArch: core: 12, cta: 3 initialized @(4892,0)
GPGPU-Sim uArch: Shader 12 finished CTA #4 (4910,0), 5 CTAs running
GPGPU-Sim uArch: core: 12, cta: 4 initialized @(4911,0)
GPGPU-Sim uArch: Shader 10 finished CTA #3 (4983,0), 5 CTAs running
GPGPU-Sim uArch: core: 10, cta: 3 initialized @(4984,0)
GPGPU-Sim uArch: Shader 2 finished CTA #3 (4988,0), 5 CTAs running
GPGPU-Sim uArch: core:  2, cta: 3 initialized @(4989,0)
GPGPU-Sim uArch: Shader 4 finished CTA #2 (5017,0), 5 CTAs running
GPGPU-Sim uArch: core:  4, cta: 2 initialized @(5018,0)
GPGPU-Sim uArch: Shader 12 finished CTA #5 (5109,0), 5 CTAs running
GPGPU-Sim uArch: core: 12, cta: 5 initialized @(5110,0)
GPGPU-Sim uArch: Shader 11 finished CTA #4 (5186,0), 5 CTAs running
GPGPU-Sim uArch: core: 11, cta: 4 initialized @(5187,0)
GPGPU-Sim uArch: Shader 11 finished CTA #5 (5248,0), 5 CTAs running
GPGPU-Sim uArch: core: 11, cta: 5 initialized @(5249,0)
GPGPU-Sim uArch: Shader 3 finished CTA #1 (5264,0), 5 CTAs running
GPGPU-Sim uArch: core:  3, cta: 1 initialized @(5265,0)
GPGPU-Sim uArch: Shader 10 finished CTA #4 (5286,0), 5 CTAs running
GPGPU-Sim uArch: core: 10, cta: 4 initialized @(5287,0)
GPGPU-Sim uArch: Shader 2 finished CTA #4 (5340,0), 5 CTAs running
GPGPU-Sim uArch: core:  2, cta: 4 initialized @(5341,0)
GPGPU-Sim uArch: Shader 11 finished CTA #1 (5361,0), 5 CTAs running
GPGPU-Sim uArch: core: 11, cta: 1 initialized @(5362,0)
GPGPU-Sim uArch: Shader 2 finished CTA #0 (5366,0), 5 CTAs running
GPGPU-Sim uArch: core:  2, cta: 0 initialized @(5367,0)
GPGPU-Sim uArch: Shader 9 finished CTA #1 (5368,0), 5 CTAs running
GPGPU-Sim uArch: core:  9, cta: 1 initialized @(5369,0)
GPGPU-Sim uArch: Shader 10 finished CTA #0 (5374,0), 5 CTAs running
GPGPU-Sim uArch: core: 10, cta: 0 initialized @(5375,0)
GPGPU-Sim uArch: Shader 13 finished CTA #5 (5426,0), 5 CTAs running
GPGPU-Sim uArch: core: 13, cta: 5 initialized @(5427,0)
GPGPU-Sim uArch: Shader 2 finished CTA #5 (5436,0), 5 CTAs running
GPGPU-Sim uArch: core:  2, cta: 5 initialized @(5437,0)
GPGPU-Sim uArch: Shader 9 finished CTA #2 (5447,0), 5 CTAs running
GPGPU-Sim uArch: core:  9, cta: 2 initialized @(5448,0)
GPGPU-Sim uArch: Shader 5 finished CTA #5 (5488,0), 5 CTAs running
GPGPU-Sim uArch: core:  5, cta: 5 initialized @(5489,0)
GPGPU-Sim uArch: Shader 4 finished CTA #0 (5575,0), 5 CTAs running
GPGPU-Sim uArch: core:  4, cta: 0 initialized @(5576,0)
GPGPU-Sim uArch: Shader 9 finished CTA #3 (5607,0), 5 CTAs running
GPGPU-Sim uArch: core:  9, cta: 3 initialized @(5608,0)
GPGPU-Sim uArch: Shader 13 finished CTA #4 (5638,0), 5 CTAs running
GPGPU-Sim uArch: core: 13, cta: 4 initialized @(5639,0)
GPGPU-Sim uArch: Shader 12 finished CTA #1 (5643,0), 5 CTAs running
GPGPU-Sim uArch: core: 12, cta: 1 initialized @(5644,0)
GPGPU-Sim uArch: Shader 5 finished CTA #4 (5646,0), 5 CTAs running
GPGPU-Sim uArch: core:  5, cta: 4 initialized @(5647,0)
GPGPU-Sim uArch: Shader 11 finished CTA #0 (5695,0), 5 CTAs running
GPGPU-Sim uArch: core: 11, cta: 0 initialized @(5696,0)
GPGPU-Sim uArch: Shader 13 finished CTA #3 (5716,0), 5 CTAs running
GPGPU-Sim uArch: core: 13, cta: 3 initialized @(5717,0)
GPGPU-Sim uArch: Shader 9 finished CTA #4 (5770,0), 5 CTAs running
GPGPU-Sim uArch: core:  9, cta: 4 initialized @(5771,0)
GPGPU-Sim uArch: Shader 1 finished CTA #1 (5801,0), 5 CTAs running
GPGPU-Sim uArch: core:  1, cta: 1 initialized @(5802,0)
GPGPU-Sim uArch: Shader 10 finished CTA #5 (5813,0), 5 CTAs running
GPGPU-Sim uArch: core: 10, cta: 5 initialized @(5814,0)
GPGPU-Sim uArch: Shader 7 finished CTA #1 (5815,0), 5 CTAs running
GPGPU-Sim uArch: core:  7, cta: 1 initialized @(5816,0)
GPGPU-Sim uArch: Shader 12 finished CTA #0 (5824,0), 5 CTAs running
GPGPU-Sim uArch: core: 12, cta: 0 initialized @(5825,0)
GPGPU-Sim uArch: Shader 4 finished CTA #1 (5850,0), 5 CTAs running
GPGPU-Sim uArch: core:  4, cta: 1 initialized @(5851,0)
GPGPU-Sim uArch: Shader 12 finished CTA #2 (5904,0), 5 CTAs running
GPGPU-Sim uArch: core: 12, cta: 2 initialized @(5905,0)
GPGPU-Sim uArch: Shader 1 finished CTA #2 (5908,0), 5 CTAs running
GPGPU-Sim uArch: core:  1, cta: 2 initialized @(5909,0)
GPGPU-Sim uArch: Shader 14 finished CTA #4 (5966,0), 5 CTAs running
GPGPU-Sim uArch: core: 14, cta: 4 initialized @(5967,0)
GPGPU-Sim uArch: Shader 1 finished CTA #0 (5967,0), 5 CTAs running
GPGPU-Sim uArch: core:  1, cta: 0 initialized @(5968,0)
GPGPU-Sim uArch: Shader 3 finished CTA #0 (5972,0), 5 CTAs running
GPGPU-Sim uArch: core:  3, cta: 0 initialized @(5973,0)
GPGPU-Sim uArch: Shader 5 finished CTA #1 (5994,0), 5 CTAs running
GPGPU-Sim uArch: core:  5, cta: 1 initialized @(5995,0)
GPGPU-Sim uArch: Shader 5 finished CTA #3 (6011,0), 5 CTAs running
GPGPU-Sim uArch: Shader 14 finished CTA #5 (6011,0), 5 CTAs running
GPGPU-Sim uArch: core: 14, cta: 5 initialized @(6012,0)
GPGPU-Sim uArch: core:  5, cta: 3 initialized @(6012,0)
GPGPU-Sim uArch: Shader 7 finished CTA #5 (6035,0), 5 CTAs running
GPGPU-Sim uArch: core:  7, cta: 5 initialized @(6036,0)
GPGPU-Sim uArch: Shader 9 finished CTA #5 (6064,0), 5 CTAs running
GPGPU-Sim uArch: core:  9, cta: 5 initialized @(6065,0)
GPGPU-Sim uArch: Shader 13 finished CTA #1 (6176,0), 5 CTAs running
GPGPU-Sim uArch: core: 13, cta: 1 initialized @(6177,0)
GPGPU-Sim uArch: Shader 1 finished CTA #4 (6177,0), 5 CTAs running
GPGPU-Sim uArch: core:  1, cta: 4 initialized @(6178,0)
GPGPU-Sim uArch: Shader 7 finished CTA #0 (6183,0), 5 CTAs running
GPGPU-Sim uArch: core:  7, cta: 0 initialized @(6184,0)
GPGPU-Sim uArch: Shader 8 finished CTA #0 (6200,0), 5 CTAs running
GPGPU-Sim uArch: core:  8, cta: 0 initialized @(6201,0)
GPGPU-Sim uArch: Shader 14 finished CTA #1 (6298,0), 5 CTAs running
GPGPU-Sim uArch: core: 14, cta: 1 initialized @(6299,0)
GPGPU-Sim uArch: Shader 7 finished CTA #2 (6301,0), 5 CTAs running
GPGPU-Sim uArch: core:  7, cta: 2 initialized @(6302,0)
GPGPU-Sim uArch: Shader 7 finished CTA #3 (6326,0), 5 CTAs running
GPGPU-Sim uArch: Shader 13 finished CTA #0 (6326,0), 5 CTAs running
GPGPU-Sim uArch: core: 13, cta: 0 initialized @(6327,0)
GPGPU-Sim uArch: core:  7, cta: 3 initialized @(6327,0)
GPGPU-Sim uArch: Shader 5 finished CTA #2 (6384,0), 5 CTAs running
GPGPU-Sim uArch: core:  5, cta: 2 initialized @(6385,0)
GPGPU-Sim uArch: Shader 1 finished CTA #3 (6391,0), 5 CTAs running
GPGPU-Sim uArch: core:  1, cta: 3 initialized @(6392,0)
GPGPU-Sim uArch: Shader 13 finished CTA #2 (6403,0), 5 CTAs running
GPGPU-Sim uArch: Shader 14 finished CTA #3 (6403,0), 5 CTAs running
GPGPU-Sim uArch: core: 13, cta: 2 initialized @(6404,0)
GPGPU-Sim uArch: core: 14, cta: 3 initialized @(6404,0)
GPGPU-Sim uArch: Shader 5 finished CTA #0 (6436,0), 5 CTAs running
GPGPU-Sim uArch: core:  5, cta: 0 initialized @(6437,0)
GPGPU-Sim uArch: Shader 14 finished CTA #0 (6451,0), 5 CTAs running
GPGPU-Sim uArch: core: 14, cta: 0 initialized @(6452,0)
GPGPU-Sim uArch: Shader 6 finished CTA #5 (6540,0), 5 CTAs running
GPGPU-Sim uArch: core:  6, cta: 5 initialized @(6541,0)
GPGPU-Sim uArch: Shader 6 finished CTA #4 (6559,0), 5 CTAs running
GPGPU-Sim uArch: core:  6, cta: 4 initialized @(6560,0)
GPGPU-Sim uArch: Shader 6 finished CTA #0 (6592,0), 5 CTAs running
GPGPU-Sim uArch: core:  6, cta: 0 initialized @(6593,0)
GPGPU-Sim uArch: Shader 7 finished CTA #4 (6604,0), 5 CTAs running
GPGPU-Sim uArch: core:  7, cta: 4 initialized @(6605,0)
GPGPU-Sim uArch: Shader 8 finished CTA #2 (6608,0), 5 CTAs running
GPGPU-Sim uArch: core:  8, cta: 2 initialized @(6609,0)
GPGPU-Sim uArch: Shader 8 finished CTA #4 (6719,0), 5 CTAs running
GPGPU-Sim uArch: core:  8, cta: 4 initialized @(6720,0)
GPGPU-Sim uArch: Shader 1 finished CTA #5 (6747,0), 5 CTAs running
GPGPU-Sim uArch: Shader 8 finished CTA #1 (6747,0), 5 CTAs running
GPGPU-Sim uArch: core:  1, cta: 5 initialized @(6748,0)
GPGPU-Sim uArch: core:  8, cta: 1 initialized @(6748,0)
GPGPU-Sim uArch: Shader 14 finished CTA #2 (6749,0), 5 CTAs running
GPGPU-Sim uArch: core: 14, cta: 2 initialized @(6750,0)
GPGPU-Sim uArch: Shader 0 finished CTA #0 (6763,0), 5 CTAs running
GPGPU-Sim uArch: core:  0, cta: 0 initialized @(6764,0)
GPGPU-Sim uArch: Shader 8 finished CTA #3 (6803,0), 5 CTAs running
GPGPU-Sim uArch: core:  8, cta: 3 initialized @(6804,0)
GPGPU-Sim uArch: Shader 0 finished CTA #5 (6805,0), 5 CTAs running
GPGPU-Sim uArch: core:  0, cta: 5 initialized @(6806,0)
GPGPU-Sim uArch: Shader 6 finished CTA #2 (6889,0), 5 CTAs running
GPGPU-Sim uArch: core:  6, cta: 2 initialized @(6890,0)
GPGPU-Sim uArch: Shader 0 finished CTA #2 (6895,0), 5 CTAs running
GPGPU-Sim uArch: core:  0, cta: 2 initialized @(6896,0)
GPGPU-Sim uArch: Shader 8 finished CTA #5 (6970,0), 5 CTAs running
GPGPU-Sim uArch: core:  8, cta: 5 initialized @(6971,0)
GPGPU-Sim uArch: Shader 0 finished CTA #3 (7015,0), 5 CTAs running
GPGPU-Sim uArch: core:  0, cta: 3 initialized @(7016,0)
GPGPU-Sim uArch: Shader 6 finished CTA #1 (7017,0), 5 CTAs running
GPGPU-Sim uArch: core:  6, cta: 1 initialized @(7018,0)
GPGPU-Sim uArch: Shader 0 finished CTA #4 (7207,0), 5 CTAs running
GPGPU-Sim uArch: core:  0, cta: 4 initialized @(7208,0)
GPGPU-Sim uArch: Shader 0 finished CTA #1 (7450,0), 5 CTAs running
GPGPU-Sim uArch: core:  0, cta: 1 initialized @(7451,0)
GPGPU-Sim uArch: Shader 2 finished CTA #2 (7554,0), 5 CTAs running
GPGPU-Sim uArch: core:  2, cta: 2 initialized @(7555,0)
GPGPU-Sim uArch: Shader 4 finished CTA #5 (7686,0), 5 CTAs running
GPGPU-Sim uArch: Shader 6 finished CTA #3 (7686,0), 5 CTAs running
GPGPU-Sim uArch: core:  4, cta: 5 initialized @(7687,0)
GPGPU-Sim uArch: core:  6, cta: 3 initialized @(7687,0)
GPGPU-Sim uArch: Shader 2 finished CTA #1 (7782,0), 5 CTAs running
GPGPU-Sim uArch: core:  2, cta: 1 initialized @(7783,0)
GPGPU-Sim uArch: Shader 4 finished CTA #4 (7893,0), 5 CTAs running
GPGPU-Sim uArch: core:  4, cta: 4 initialized @(7894,0)
GPGPU-Sim uArch: Shader 10 finished CTA #2 (8269,0), 5 CTAs running
GPGPU-Sim uArch: core: 10, cta: 2 initialized @(8270,0)
GPGPU-Sim uArch: Shader 2 finished CTA #3 (8403,0), 5 CTAs running
GPGPU-Sim uArch: core:  2, cta: 3 initialized @(8404,0)
GPGPU-Sim uArch: Shader 4 finished CTA #3 (8425,0), 5 CTAs running
GPGPU-Sim uArch: core:  4, cta: 3 initialized @(8426,0)
GPGPU-Sim uArch: Shader 5 finished CTA #4 (8440,0), 5 CTAs running
GPGPU-Sim uArch: core:  5, cta: 4 initialized @(8441,0)
GPGPU-Sim uArch: Shader 2 finished CTA #5 (8472,0), 5 CTAs running
GPGPU-Sim uArch: core:  2, cta: 5 initialized @(8473,0)
GPGPU-Sim uArch: Shader 2 finished CTA #4 (8598,0), 5 CTAs running
GPGPU-Sim uArch: core:  2, cta: 4 initialized @(8599,0)
GPGPU-Sim uArch: Shader 3 finished CTA #2 (8663,0), 5 CTAs running
GPGPU-Sim uArch: core:  3, cta: 2 initialized @(8664,0)
GPGPU-Sim uArch: Shader 3 finished CTA #3 (8792,0), 5 CTAs running
GPGPU-Sim uArch: core:  3, cta: 3 initialized @(8793,0)
GPGPU-Sim uArch: Shader 5 finished CTA #5 (8803,0), 5 CTAs running
GPGPU-Sim uArch: core:  5, cta: 5 initialized @(8804,0)
GPGPU-Sim uArch: Shader 10 finished CTA #3 (8853,0), 5 CTAs running
GPGPU-Sim uArch: core: 10, cta: 3 initialized @(8854,0)
GPGPU-Sim uArch: Shader 9 finished CTA #0 (8861,0), 5 CTAs running
GPGPU-Sim uArch: core:  9, cta: 0 initialized @(8862,0)
GPGPU-Sim uArch: Shader 10 finished CTA #4 (8878,0), 5 CTAs running
GPGPU-Sim uArch: core: 10, cta: 4 initialized @(8879,0)
GPGPU-Sim uArch: Shader 4 finished CTA #2 (8885,0), 5 CTAs running
GPGPU-Sim uArch: core:  4, cta: 2 initialized @(8886,0)
GPGPU-Sim uArch: Shader 10 finished CTA #1 (9009,0), 5 CTAs running
GPGPU-Sim uArch: core: 10, cta: 1 initialized @(9010,0)
GPGPU-Sim uArch: Shader 2 finished CTA #0 (9043,0), 5 CTAs running
GPGPU-Sim uArch: core:  2, cta: 0 initialized @(9044,0)
GPGPU-Sim uArch: Shader 10 finished CTA #0 (9057,0), 5 CTAs running
GPGPU-Sim uArch: core: 10, cta: 0 initialized @(9058,0)
GPGPU-Sim uArch: Shader 12 finished CTA #4 (9067,0), 5 CTAs running
GPGPU-Sim uArch: core: 12, cta: 4 initialized @(9068,0)
GPGPU-Sim uArch: Shader 3 finished CTA #5 (9077,0), 5 CTAs running
GPGPU-Sim uArch: core:  3, cta: 5 initialized @(9078,0)
GPGPU-Sim uArch: Shader 3 finished CTA #1 (9164,0), 5 CTAs running
GPGPU-Sim uArch: core:  3, cta: 1 initialized @(9165,0)
GPGPU-Sim uArch: Shader 9 finished CTA #1 (9233,0), 5 CTAs running
GPGPU-Sim uArch: core:  9, cta: 1 initialized @(9234,0)
GPGPU-Sim uArch: Shader 11 finished CTA #2 (9251,0), 5 CTAs running
GPGPU-Sim uArch: core: 11, cta: 2 initialized @(9252,0)
GPGPU-Sim uArch: Shader 3 finished CTA #4 (9252,0), 5 CTAs running
GPGPU-Sim uArch: core:  3, cta: 4 initialized @(9253,0)
GPGPU-Sim uArch: Shader 11 finished CTA #3 (9281,0), 5 CTAs running
GPGPU-Sim uArch: core: 11, cta: 3 initialized @(9282,0)
GPGPU-Sim uArch: Shader 12 finished CTA #5 (9305,0), 5 CTAs running
GPGPU-Sim uArch: core: 12, cta: 5 initialized @(9306,0)
GPGPU-Sim uArch: Shader 9 finished CTA #2 (9321,0), 5 CTAs running
GPGPU-Sim uArch: core:  9, cta: 2 initialized @(9322,0)
GPGPU-Sim uArch: Shader 12 finished CTA #3 (9379,0), 5 CTAs running
GPGPU-Sim uArch: core: 12, cta: 3 initialized @(9380,0)
GPGPU-Sim uArch: Shader 13 finished CTA #5 (9397,0), 5 CTAs running
GPGPU-Sim uArch: core: 13, cta: 5 initialized @(9398,0)
GPGPU-Sim uArch: Shader 9 finished CTA #4 (9420,0), 5 CTAs running
GPGPU-Sim uArch: core:  9, cta: 4 initialized @(9421,0)
GPGPU-Sim uArch: Shader 13 finished CTA #3 (9425,0), 5 CTAs running
GPGPU-Sim uArch: core: 13, cta: 3 initialized @(9426,0)
GPGPU-Sim uArch: Shader 11 finished CTA #0 (9467,0), 5 CTAs running
GPGPU-Sim uArch: core: 11, cta: 0 initialized @(9468,0)
GPGPU-Sim uArch: Shader 7 finished CTA #5 (9476,0), 5 CTAs running
GPGPU-Sim uArch: core:  7, cta: 5 initialized @(9477,0)
GPGPU-Sim uArch: Shader 4 finished CTA #1 (9506,0), 5 CTAs running
GPGPU-Sim uArch: core:  4, cta: 1 initialized @(9507,0)
GPGPU-Sim uArch: Shader 11 finished CTA #1 (9514,0), 5 CTAs running
GPGPU-Sim uArch: core: 11, cta: 1 initialized @(9515,0)
GPGPU-Sim uArch: Shader 1 finished CTA #0 (9515,0), 5 CTAs running
GPGPU-Sim uArch: core:  1, cta: 0 initialized @(9516,0)
GPGPU-Sim uArch: Shader 12 finished CTA #2 (9565,0), 5 CTAs running
GPGPU-Sim uArch: core: 12, cta: 2 initialized @(9566,0)
GPGPU-Sim uArch: Shader 14 finished CTA #4 (9583,0), 5 CTAs running
GPGPU-Sim uArch: core: 14, cta: 4 initialized @(9584,0)
GPGPU-Sim uArch: Shader 1 finished CTA #1 (9584,0), 5 CTAs running
GPGPU-Sim uArch: core:  1, cta: 1 initialized @(9585,0)
GPGPU-Sim uArch: Shader 11 finished CTA #5 (9592,0), 5 CTAs running
GPGPU-Sim uArch: core: 11, cta: 5 initialized @(9593,0)
GPGPU-Sim uArch: Shader 4 finished CTA #0 (9593,0), 5 CTAs running
GPGPU-Sim uArch: core:  4, cta: 0 initialized @(9594,0)
GPGPU-Sim uArch: Shader 9 finished CTA #5 (9619,0), 5 CTAs running
GPGPU-Sim uArch: core:  9, cta: 5 initialized @(9620,0)
GPGPU-Sim uArch: Shader 1 finished CTA #2 (9622,0), 5 CTAs running
GPGPU-Sim uArch: core:  1, cta: 2 initialized @(9623,0)
GPGPU-Sim uArch: Shader 7 finished CTA #3 (9646,0), 5 CTAs running
GPGPU-Sim uArch: core:  7, cta: 3 initialized @(9647,0)
GPGPU-Sim uArch: Shader 12 finished CTA #1 (9693,0), 5 CTAs running
GPGPU-Sim uArch: core: 12, cta: 1 initialized @(9694,0)
GPGPU-Sim uArch: Shader 14 finished CTA #0 (9696,0), 5 CTAs running
GPGPU-Sim uArch: core: 14, cta: 0 initialized @(9697,0)
GPGPU-Sim uArch: Shader 5 finished CTA #3 (9734,0), 5 CTAs running
GPGPU-Sim uArch: core:  5, cta: 3 initialized @(9735,0)
GPGPU-Sim uArch: Shader 7 finished CTA #2 (9742,0), 5 CTAs running
GPGPU-Sim uArch: core:  7, cta: 2 initialized @(9743,0)
GPGPU-Sim uArch: Shader 1 finished CTA #4 (9763,0), 5 CTAs running
GPGPU-Sim uArch: core:  1, cta: 4 initialized @(9764,0)
GPGPU-Sim uArch: Shader 7 finished CTA #1 (9863,0), 5 CTAs running
GPGPU-Sim uArch: core:  7, cta: 1 initialized @(9864,0)
GPGPU-Sim uArch: Shader 6 finished CTA #5 (9864,0), 5 CTAs running
GPGPU-Sim uArch: core:  6, cta: 5 initialized @(9865,0)
GPGPU-Sim uArch: Shader 9 finished CTA #3 (9938,0), 5 CTAs running
GPGPU-Sim uArch: core:  9, cta: 3 initialized @(9939,0)
GPGPU-Sim uArch: Shader 14 finished CTA #5 (9951,0), 5 CTAs running
GPGPU-Sim uArch: core: 14, cta: 5 initialized @(9952,0)
GPGPU-Sim uArch: Shader 1 finished CTA #3 (9963,0), 5 CTAs running
GPGPU-Sim uArch: core:  1, cta: 3 initialized @(9964,0)
GPGPU-Sim uArch: Shader 12 finished CTA #0 (9969,0), 5 CTAs running
GPGPU-Sim uArch: core: 12, cta: 0 initialized @(9970,0)
GPGPU-Sim uArch: Shader 11 finished CTA #4 (10013,0), 5 CTAs running
GPGPU-Sim uArch: core: 11, cta: 4 initialized @(10014,0)
GPGPU-Sim uArch: Shader 5 finished CTA #1 (10019,0), 5 CTAs running
GPGPU-Sim uArch: core:  5, cta: 1 initialized @(10020,0)
GPGPU-Sim uArch: Shader 10 finished CTA #5 (10057,0), 5 CTAs running
GPGPU-Sim uArch: Shader 14 finished CTA #1 (10057,0), 5 CTAs running
GPGPU-Sim uArch: core: 10, cta: 5 initialized @(10058,0)
GPGPU-Sim uArch: core: 14, cta: 1 initialized @(10058,0)
GPGPU-Sim uArch: Shader 6 finished CTA #4 (10076,0), 5 CTAs running
GPGPU-Sim uArch: core:  6, cta: 4 initialized @(10077,0)
GPGPU-Sim uArch: Shader 7 finished CTA #0 (10181,0), 5 CTAs running
GPGPU-Sim uArch: core:  7, cta: 0 initialized @(10182,0)
GPGPU-Sim uArch: Shader 5 finished CTA #0 (10215,0), 5 CTAs running
GPGPU-Sim uArch: core:  5, cta: 0 initialized @(10216,0)
GPGPU-Sim uArch: Shader 5 finished CTA #2 (10247,0), 5 CTAs running
GPGPU-Sim uArch: core:  5, cta: 2 initialized @(10248,0)
GPGPU-Sim uArch: Shader 13 finished CTA #4 (10275,0), 5 CTAs running
GPGPU-Sim uArch: core: 13, cta: 4 initialized @(10276,0)
GPGPU-Sim uArch: Shader 13 finished CTA #1 (10395,0), 5 CTAs running
GPGPU-Sim uArch: core: 13, cta: 1 initialized @(10396,0)
GPGPU-Sim uArch: Shader 6 finished CTA #0 (10441,0), 5 CTAs running
GPGPU-Sim uArch: core:  6, cta: 0 initialized @(10442,0)
GPGPU-Sim uArch: Shader 13 finished CTA #0 (10469,0), 5 CTAs running
GPGPU-Sim uArch: core: 13, cta: 0 initialized @(10470,0)
GPGPU-Sim uArch: Shader 7 finished CTA #4 (10497,0), 5 CTAs running
GPGPU-Sim uArch: core:  7, cta: 4 initialized @(10498,0)
GPGPU-Sim uArch: Shader 14 finished CTA #3 (10556,0), 5 CTAs running
GPGPU-Sim uArch: core: 14, cta: 3 initialized @(10557,0)
GPGPU-Sim uArch: Shader 14 finished CTA #2 (10623,0), 5 CTAs running
GPGPU-Sim uArch: core: 14, cta: 2 initialized @(10624,0)
GPGPU-Sim uArch: Shader 6 finished CTA #2 (10725,0), 5 CTAs running
GPGPU-Sim uArch: core:  6, cta: 2 initialized @(10726,0)
GPGPU-Sim uArch: Shader 6 finished CTA #1 (10736,0), 5 CTAs running
GPGPU-Sim uArch: core:  6, cta: 1 initialized @(10737,0)
GPGPU-Sim uArch: Shader 8 finished CTA #2 (10744,0), 5 CTAs running
GPGPU-Sim uArch: core:  8, cta: 2 initialized @(10745,0)
GPGPU-Sim uArch: Shader 8 finished CTA #0 (10762,0), 5 CTAs running
GPGPU-Sim uArch: core:  8, cta: 0 initialized @(10763,0)
GPGPU-Sim uArch: Shader 13 finished CTA #2 (10777,0), 5 CTAs running
GPGPU-Sim uArch: core: 13, cta: 2 initialized @(10778,0)
GPGPU-Sim uArch: Shader 1 finished CTA #5 (10866,0), 5 CTAs running
GPGPU-Sim uArch: core:  1, cta: 5 initialized @(10867,0)
GPGPU-Sim uArch: Shader 8 finished CTA #4 (10885,0), 5 CTAs running
GPGPU-Sim uArch: core:  8, cta: 4 initialized @(10886,0)
GPGPU-Sim uArch: Shader 3 finished CTA #0 (11140,0), 5 CTAs running
GPGPU-Sim uArch: core:  3, cta: 0 initialized @(11141,0)
GPGPU-Sim uArch: Shader 8 finished CTA #3 (11264,0), 5 CTAs running
GPGPU-Sim uArch: core:  8, cta: 3 initialized @(11265,0)
GPGPU-Sim uArch: Shader 8 finished CTA #1 (11386,0), 5 CTAs running
GPGPU-Sim uArch: core:  8, cta: 1 initialized @(11387,0)
GPGPU-Sim uArch: Shader 8 finished CTA #5 (11402,0), 5 CTAs running
GPGPU-Sim uArch: core:  8, cta: 5 initialized @(11403,0)
GPGPU-Sim uArch: Shader 0 finished CTA #3 (11500,0), 5 CTAs running
GPGPU-Sim uArch: core:  0, cta: 3 initialized @(11501,0)
GPGPU-Sim uArch: Shader 6 finished CTA #3 (11539,0), 5 CTAs running
GPGPU-Sim uArch: core:  6, cta: 3 initialized @(11540,0)
GPGPU-Sim uArch: Shader 2 finished CTA #1 (11542,0), 5 CTAs running
GPGPU-Sim uArch: core:  2, cta: 1 initialized @(11543,0)
GPGPU-Sim uArch: Shader 0 finished CTA #0 (11564,0), 5 CTAs running
GPGPU-Sim uArch: core:  0, cta: 0 initialized @(11565,0)
GPGPU-Sim uArch: Shader 5 finished CTA #5 (11584,0), 5 CTAs running
GPGPU-Sim uArch: core:  5, cta: 5 initialized @(11585,0)
GPGPU-Sim uArch: Shader 2 finished CTA #3 (11601,0), 5 CTAs running
GPGPU-Sim uArch: core:  2, cta: 3 initialized @(11602,0)
GPGPU-Sim uArch: Shader 0 finished CTA #4 (11608,0), 5 CTAs running
GPGPU-Sim uArch: core:  0, cta: 4 initialized @(11609,0)
GPGPU-Sim uArch: Shader 0 finished CTA #5 (11634,0), 5 CTAs running
GPGPU-Sim uArch: core:  0, cta: 5 initialized @(11635,0)
GPGPU-Sim uArch: Shader 2 finished CTA #2 (11681,0), 5 CTAs running
GPGPU-Sim uArch: core:  2, cta: 2 initialized @(11682,0)
GPGPU-Sim uArch: Shader 5 finished CTA #4 (11791,0), 5 CTAs running
GPGPU-Sim uArch: core:  5, cta: 4 initialized @(11792,0)
GPGPU-Sim uArch: Shader 0 finished CTA #2 (11953,0), 5 CTAs running
GPGPU-Sim uArch: core:  0, cta: 2 initialized @(11954,0)
GPGPU-Sim uArch: Shader 0 finished CTA #1 (11982,0), 5 CTAs running
GPGPU-Sim uArch: core:  0, cta: 1 initialized @(11983,0)
GPGPU-Sim uArch: Shader 2 finished CTA #4 (12036,0), 5 CTAs running
GPGPU-Sim uArch: core:  2, cta: 4 initialized @(12037,0)
GPGPU-Sim uArch: Shader 12 finished CTA #5 (12042,0), 5 CTAs running
GPGPU-Sim uArch: core: 12, cta: 5 initialized @(12043,0)
GPGPU-Sim uArch: Shader 3 finished CTA #2 (12087,0), 5 CTAs running
GPGPU-Sim uArch: core:  3, cta: 2 initialized @(12088,0)
GPGPU-Sim uArch: Shader 12 finished CTA #4 (12123,0), 5 CTAs running
GPGPU-Sim uArch: core: 12, cta: 4 initialized @(12124,0)
GPGPU-Sim uArch: Shader 4 finished CTA #4 (12211,0), 5 CTAs running
GPGPU-Sim uArch: core:  4, cta: 4 initialized @(12212,0)
GPGPU-Sim uArch: Shader 2 finished CTA #5 (12256,0), 5 CTAs running
GPGPU-Sim uArch: core:  2, cta: 5 initialized @(12257,0)
GPGPU-Sim uArch: Shader 4 finished CTA #5 (12402,0), 5 CTAs running
GPGPU-Sim uArch: core:  4, cta: 5 initialized @(12403,0)
GPGPU-Sim uArch: Shader 1 finished CTA #2 (12414,0), 5 CTAs running
GPGPU-Sim uArch: core:  1, cta: 2 initialized @(12415,0)
GPGPU-Sim uArch: Shader 3 finished CTA #3 (12508,0), 5 CTAs running
GPGPU-Sim uArch: core:  3, cta: 3 initialized @(12509,0)
GPGPU-Sim uArch: Shader 12 finished CTA #3 (12554,0), 5 CTAs running
GPGPU-Sim uArch: core: 12, cta: 3 initialized @(12555,0)
GPGPU-Sim uArch: Shader 2 finished CTA #0 (12586,0), 5 CTAs running
GPGPU-Sim uArch: core:  2, cta: 0 initialized @(12587,0)
GPGPU-Sim uArch: Shader 12 finished CTA #2 (12691,0), 5 CTAs running
GPGPU-Sim uArch: core: 12, cta: 2 initialized @(12692,0)
GPGPU-Sim uArch: Shader 10 finished CTA #2 (12757,0), 5 CTAs running
GPGPU-Sim uArch: core: 10, cta: 2 initialized @(12758,0)
GPGPU-Sim uArch: Shader 4 finished CTA #2 (12770,0), 5 CTAs running
GPGPU-Sim uArch: core:  4, cta: 2 initialized @(12771,0)
GPGPU-Sim uArch: Shader 9 finished CTA #0 (12795,0), 5 CTAs running
GPGPU-Sim uArch: core:  9, cta: 0 initialized @(12796,0)
GPGPU-Sim uArch: Shader 4 finished CTA #3 (12797,0), 5 CTAs running
GPGPU-Sim uArch: core:  4, cta: 3 initialized @(12798,0)
GPGPU-Sim uArch: Shader 9 finished CTA #5 (12844,0), 5 CTAs running
GPGPU-Sim uArch: core:  9, cta: 5 initialized @(12845,0)
GPGPU-Sim uArch: Shader 9 finished CTA #1 (12895,0), 5 CTAs running
GPGPU-Sim uArch: core:  9, cta: 1 initialized @(12896,0)
GPGPU-Sim uArch: Shader 5 finished CTA #0 (12936,0), 5 CTAs running
GPGPU-Sim uArch: core:  5, cta: 0 initialized @(12937,0)
GPGPU-Sim uArch: Shader 11 finished CTA #1 (12977,0), 5 CTAs running
GPGPU-Sim uArch: core: 11, cta: 1 initialized @(12978,0)
GPGPU-Sim uArch: Shader 11 finished CTA #3 (13003,0), 5 CTAs running
GPGPU-Sim uArch: core: 11, cta: 3 initialized @(13004,0)
GPGPU-Sim uArch: Shader 1 finished CTA #0 (13016,0), 5 CTAs running
GPGPU-Sim uArch: core:  1, cta: 0 initialized @(13017,0)
GPGPU-Sim uArch: Shader 12 finished CTA #1 (13030,0), 5 CTAs running
GPGPU-Sim uArch: core: 12, cta: 1 initialized @(13031,0)
GPGPU-Sim uArch: Shader 1 finished CTA #1 (13057,0), 5 CTAs running
GPGPU-Sim uArch: core:  1, cta: 1 initialized @(13058,0)
GPGPU-Sim uArch: Shader 11 finished CTA #2 (13093,0), 5 CTAs running
GPGPU-Sim uArch: core: 11, cta: 2 initialized @(13094,0)
GPGPU-Sim uArch: Shader 7 finished CTA #3 (13114,0), 5 CTAs running
GPGPU-Sim uArch: core:  7, cta: 3 initialized @(13115,0)
GPGPU-Sim uArch: Shader 14 finished CTA #0 (13116,0), 5 CTAs running
GPGPU-Sim uArch: core: 14, cta: 0 initialized @(13117,0)
GPGPU-Sim uArch: Shader 9 finished CTA #4 (13119,0), 5 CTAs running
GPGPU-Sim uArch: core:  9, cta: 4 initialized @(13120,0)
GPGPU-Sim uArch: Shader 10 finished CTA #3 (13136,0), 5 CTAs running
GPGPU-Sim uArch: core: 10, cta: 3 initialized @(13137,0)
GPGPU-Sim uArch: Shader 12 finished CTA #0 (13145,0), 5 CTAs running
GPGPU-Sim uArch: core: 12, cta: 0 initialized @(13146,0)
GPGPU-Sim uArch: Shader 9 finished CTA #2 (13169,0), 5 CTAs running
GPGPU-Sim uArch: core:  9, cta: 2 initialized @(13170,0)
GPGPU-Sim uArch: Shader 5 finished CTA #3 (13171,0), 5 CTAs running
GPGPU-Sim uArch: core:  5, cta: 3 initialized @(13172,0)
GPGPU-Sim uArch: Shader 5 finished CTA #2 (13241,0), 5 CTAs running
GPGPU-Sim uArch: core:  5, cta: 2 initialized @(13242,0)
GPGPU-Sim uArch: Shader 6 finished CTA #5 (13247,0), 5 CTAs running
GPGPU-Sim uArch: core:  6, cta: 5 initialized @(13248,0)
GPGPU-Sim uArch: Shader 10 finished CTA #0 (13257,0), 5 CTAs running
GPGPU-Sim uArch: core: 10, cta: 0 initialized @(13258,0)
GPGPU-Sim uArch: Shader 10 finished CTA #4 (13260,0), 5 CTAs running
GPGPU-Sim uArch: core: 10, cta: 4 initialized @(13261,0)
GPGPU-Sim uArch: Shader 14 finished CTA #4 (13261,0), 5 CTAs running
GPGPU-Sim uArch: core: 14, cta: 4 initialized @(13262,0)
GPGPU-Sim uArch: Shader 5 finished CTA #1 (13276,0), 5 CTAs running
GPGPU-Sim uArch: core:  5, cta: 1 initialized @(13277,0)
GPGPU-Sim uArch: Shader 6 finished CTA #4 (13292,0), 5 CTAs running
GPGPU-Sim uArch: core:  6, cta: 4 initialized @(13293,0)
GPGPU-Sim uArch: Shader 7 finished CTA #2 (13298,0), 5 CTAs running
GPGPU-Sim uArch: core:  7, cta: 2 initialized @(13299,0)
GPGPU-Sim uArch: Shader 3 finished CTA #5 (13344,0), 5 CTAs running
GPGPU-Sim uArch: core:  3, cta: 5 initialized @(13345,0)
GPGPU-Sim uArch: Shader 14 finished CTA #1 (13355,0), 5 CTAs running
GPGPU-Sim uArch: core: 14, cta: 1 initialized @(13356,0)
GPGPU-Sim uArch: Shader 1 finished CTA #3 (13404,0), 5 CTAs running
GPGPU-Sim uArch: core:  1, cta: 3 initialized @(13405,0)
GPGPU-Sim uArch: Shader 3 finished CTA #1 (13405,0), 5 CTAs running
GPGPU-Sim uArch: core:  3, cta: 1 initialized @(13406,0)
GPGPU-Sim uArch: Shader 10 finished CTA #1 (13407,0), 5 CTAs running
GPGPU-Sim uArch: core: 10, cta: 1 initialized @(13408,0)
GPGPU-Sim uArch: Shader 10 finished CTA #5 (13432,0), 5 CTAs running
GPGPU-Sim uArch: core: 10, cta: 5 initialized @(13433,0)
GPGPU-Sim uArch: Shader 4 finished CTA #1 (13452,0), 5 CTAs running
GPGPU-Sim uArch: core:  4, cta: 1 initialized @(13453,0)
GPGPU-Sim uArch: Shader 7 finished CTA #5 (13461,0), 5 CTAs running
GPGPU-Sim uArch: core:  7, cta: 5 initialized @(13462,0)
GPGPU-Sim uArch: Shader 1 finished CTA #4 (13487,0), 5 CTAs running
GPGPU-Sim uArch: core:  1, cta: 4 initialized @(13488,0)
GPGPU-Sim uArch: Shader 11 finished CTA #5 (13488,0), 5 CTAs running
GPGPU-Sim uArch: core: 11, cta: 5 initialized @(13489,0)
GPGPU-Sim uArch: Shader 7 finished CTA #1 (13537,0), 5 CTAs running
GPGPU-Sim uArch: core:  7, cta: 1 initialized @(13538,0)
GPGPU-Sim uArch: Shader 3 finished CTA #4 (13555,0), 5 CTAs running
GPGPU-Sim uArch: core:  3, cta: 4 initialized @(13556,0)
GPGPU-Sim uArch: Shader 4 finished CTA #0 (13608,0), 5 CTAs running
GPGPU-Sim uArch: core:  4, cta: 0 initialized @(13609,0)
GPGPU-Sim uArch: Shader 6 finished CTA #0 (13610,0), 5 CTAs running
GPGPU-Sim uArch: core:  6, cta: 0 initialized @(13611,0)
GPGPU-Sim uArch: Shader 11 finished CTA #0 (13640,0), 5 CTAs running
GPGPU-Sim uArch: core: 11, cta: 0 initialized @(13641,0)
GPGPU-Sim uArch: Shader 7 finished CTA #4 (13700,0), 5 CTAs running
GPGPU-Sim uArch: core:  7, cta: 4 initialized @(13701,0)
GPGPU-Sim uArch: Shader 6 finished CTA #2 (13707,0), 5 CTAs running
GPGPU-Sim uArch: core:  6, cta: 2 initialized @(13708,0)
GPGPU-Sim uArch: Shader 14 finished CTA #5 (13721,0), 5 CTAs running
GPGPU-Sim uArch: core: 14, cta: 5 initialized @(13722,0)
GPGPU-Sim uArch: Shader 9 finished CTA #3 (13732,0), 5 CTAs running
GPGPU-Sim uArch: core:  9, cta: 3 initialized @(13733,0)
GPGPU-Sim uArch: Shader 14 finished CTA #3 (13780,0), 5 CTAs running
GPGPU-Sim uArch: core: 14, cta: 3 initialized @(13781,0)
GPGPU-Sim uArch: Shader 11 finished CTA #4 (13831,0), 5 CTAs running
GPGPU-Sim uArch: core: 11, cta: 4 initialized @(13832,0)
GPGPU-Sim uArch: Shader 14 finished CTA #2 (13859,0), 5 CTAs running
GPGPU-Sim uArch: core: 14, cta: 2 initialized @(13860,0)
GPGPU-Sim uArch: Shader 6 finished CTA #1 (13937,0), 5 CTAs running
GPGPU-Sim uArch: core:  6, cta: 1 initialized @(13938,0)
GPGPU-Sim uArch: Shader 7 finished CTA #0 (14243,0), 5 CTAs running
GPGPU-Sim uArch: core:  7, cta: 0 initialized @(14244,0)
GPGPU-Sim uArch: Shader 1 finished CTA #5 (14337,0), 5 CTAs running
GPGPU-Sim uArch: core:  1, cta: 5 initialized @(14338,0)
GPGPU-Sim uArch: Shader 0 finished CTA #3 (14603,0), 5 CTAs running
GPGPU-Sim uArch: core:  0, cta: 3 initialized @(14604,0)
GPGPU-Sim uArch: Shader 8 finished CTA #2 (14617,0), 5 CTAs running
GPGPU-Sim uArch: core:  8, cta: 2 initialized @(14618,0)
GPGPU-Sim uArch: Shader 8 finished CTA #0 (14626,0), 5 CTAs running
GPGPU-Sim uArch: core:  8, cta: 0 initialized @(14627,0)
GPGPU-Sim uArch: Shader 5 finished CTA #5 (14701,0), 5 CTAs running
GPGPU-Sim uArch: core:  5, cta: 5 initialized @(14702,0)
GPGPU-Sim uArch: Shader 0 finished CTA #4 (14761,0), 5 CTAs running
GPGPU-Sim uArch: core:  0, cta: 4 initialized @(14762,0)
GPGPU-Sim uArch: Shader 0 finished CTA #5 (14791,0), 5 CTAs running
GPGPU-Sim uArch: core:  0, cta: 5 initialized @(14792,0)
GPGPU-Sim uArch: Shader 2 finished CTA #1 (14879,0), 5 CTAs running
GPGPU-Sim uArch: core:  2, cta: 1 initialized @(14880,0)
GPGPU-Sim uArch: Shader 8 finished CTA #4 (14937,0), 5 CTAs running
GPGPU-Sim uArch: core:  8, cta: 4 initialized @(14938,0)
GPGPU-Sim uArch: Shader 2 finished CTA #2 (14996,0), 5 CTAs running
GPGPU-Sim uArch: core:  2, cta: 2 initialized @(14997,0)
GPGPU-Sim uArch: Shader 0 finished CTA #2 (15066,0), 5 CTAs running
GPGPU-Sim uArch: core:  0, cta: 2 initialized @(15067,0)
GPGPU-Sim uArch: Shader 8 finished CTA #1 (15077,0), 5 CTAs running
GPGPU-Sim uArch: core:  8, cta: 1 initialized @(15078,0)
GPGPU-Sim uArch: Shader 2 finished CTA #4 (15101,0), 5 CTAs running
GPGPU-Sim uArch: core:  2, cta: 4 initialized @(15102,0)
GPGPU-Sim uArch: Shader 8 finished CTA #5 (15140,0), 5 CTAs running
GPGPU-Sim uArch: core:  8, cta: 5 initialized @(15141,0)
GPGPU-Sim uArch: Shader 0 finished CTA #0 (15211,0), 5 CTAs running
GPGPU-Sim uArch: core:  0, cta: 0 initialized @(15212,0)
GPGPU-Sim uArch: Shader 2 finished CTA #3 (15240,0), 5 CTAs running
GPGPU-Sim uArch: core:  2, cta: 3 initialized @(15241,0)
GPGPU-Sim uArch: Shader 8 finished CTA #3 (15243,0), 5 CTAs running
GPGPU-Sim uArch: core:  8, cta: 3 initialized @(15244,0)
GPGPU-Sim uArch: Shader 13 finished CTA #3 (15331,0), 5 CTAs running
GPGPU-Sim uArch: core: 13, cta: 3 initialized @(15332,0)
GPGPU-Sim uArch: Shader 2 finished CTA #5 (15355,0), 5 CTAs running
GPGPU-Sim uArch: core:  2, cta: 5 initialized @(15356,0)
GPGPU-Sim uArch: Shader 10 finished CTA #2 (15411,0), 5 CTAs running
GPGPU-Sim uArch: core: 10, cta: 2 initialized @(15412,0)
GPGPU-Sim uArch: Shader 3 finished CTA #0 (15461,0), 5 CTAs running
GPGPU-Sim uArch: core:  3, cta: 0 initialized @(15462,0)
GPGPU-Sim uArch: Shader 6 finished CTA #3 (15478,0), 5 CTAs running
GPGPU-Sim uArch: core:  6, cta: 3 initialized @(15479,0)
GPGPU-Sim uArch: Shader 0 finished CTA #1 (15566,0), 5 CTAs running
GPGPU-Sim uArch: core:  0, cta: 1 initialized @(15567,0)
GPGPU-Sim uArch: Shader 13 finished CTA #2 (15615,0), 5 CTAs running
GPGPU-Sim uArch: core: 13, cta: 2 initialized @(15616,0)
GPGPU-Sim uArch: Shader 13 finished CTA #5 (15643,0), 5 CTAs running
GPGPU-Sim uArch: core: 13, cta: 5 initialized @(15644,0)
GPGPU-Sim uArch: Shader 2 finished CTA #0 (15785,0), 5 CTAs running
GPGPU-Sim uArch: Shader 13 finished CTA #0 (15785,0), 5 CTAs running
GPGPU-Sim uArch: core:  2, cta: 0 initialized @(15786,0)
GPGPU-Sim uArch: core: 13, cta: 0 initialized @(15786,0)
GPGPU-Sim uArch: Shader 13 finished CTA #1 (15797,0), 5 CTAs running
GPGPU-Sim uArch: core: 13, cta: 1 initialized @(15798,0)
GPGPU-Sim uArch: Shader 13 finished CTA #4 (15823,0), 5 CTAs running
GPGPU-Sim uArch: core: 13, cta: 4 initialized @(15824,0)
GPGPU-Sim uArch: Shader 9 finished CTA #0 (16012,0), 5 CTAs running
GPGPU-Sim uArch: core:  9, cta: 0 initialized @(16013,0)
GPGPU-Sim uArch: Shader 9 finished CTA #5 (16077,0), 5 CTAs running
GPGPU-Sim uArch: core:  9, cta: 5 initialized @(16078,0)
GPGPU-Sim uArch: Shader 5 finished CTA #4 (16101,0), 5 CTAs running
GPGPU-Sim uArch: core:  5, cta: 4 initialized @(16102,0)
GPGPU-Sim uArch: Shader 4 finished CTA #4 (16185,0), 5 CTAs running
GPGPU-Sim uArch: core:  4, cta: 4 initialized @(16186,0)
GPGPU-Sim uArch: Shader 1 finished CTA #2 (16231,0), 5 CTAs running
GPGPU-Sim uArch: core:  1, cta: 2 initialized @(16232,0)
GPGPU-Sim uArch: Shader 1 finished CTA #0 (16265,0), 5 CTAs running
GPGPU-Sim uArch: core:  1, cta: 0 initialized @(16266,0)
GPGPU-Sim uArch: Shader 3 finished CTA #2 (16435,0), 5 CTAs running
GPGPU-Sim uArch: core:  3, cta: 2 initialized @(16436,0)
GPGPU-Sim uArch: Shader 9 finished CTA #1 (16451,0), 5 CTAs running
GPGPU-Sim uArch: core:  9, cta: 1 initialized @(16452,0)
GPGPU-Sim uArch: Shader 9 finished CTA #4 (16489,0), 5 CTAs running
GPGPU-Sim uArch: Shader 10 finished CTA #3 (16489,0), 5 CTAs running
GPGPU-Sim uArch: core: 10, cta: 3 initialized @(16490,0)
GPGPU-Sim uArch: core:  9, cta: 4 initialized @(16490,0)
GPGPU-Sim uArch: Shader 12 finished CTA #3 (16646,0), 5 CTAs running
GPGPU-Sim uArch: core: 12, cta: 3 initialized @(16647,0)
GPGPU-Sim uArch: Shader 12 finished CTA #4 (16741,0), 5 CTAs running
GPGPU-Sim uArch: core: 12, cta: 4 initialized @(16742,0)
GPGPU-Sim uArch: Shader 10 finished CTA #1 (16814,0), 5 CTAs running
GPGPU-Sim uArch: core: 10, cta: 1 initialized @(16815,0)
GPGPU-Sim uArch: Shader 9 finished CTA #2 (16823,0), 5 CTAs running
GPGPU-Sim uArch: core:  9, cta: 2 initialized @(16824,0)
GPGPU-Sim uArch: Shader 10 finished CTA #5 (16831,0), 5 CTAs running
GPGPU-Sim uArch: core: 10, cta: 5 initialized @(16832,0)
GPGPU-Sim uArch: Shader 4 finished CTA #5 (16872,0), 5 CTAs running
GPGPU-Sim uArch: core:  4, cta: 5 initialized @(16873,0)
GPGPU-Sim uArch: Shader 11 finished CTA #1 (16880,0), 5 CTAs running
GPGPU-Sim uArch: core: 11, cta: 1 initialized @(16881,0)
GPGPU-Sim uArch: Shader 12 finished CTA #5 (16925,0), 5 CTAs running
GPGPU-Sim uArch: core: 12, cta: 5 initialized @(16926,0)
GPGPU-Sim uArch: Shader 10 finished CTA #4 (16927,0), 5 CTAs running
GPGPU-Sim uArch: core: 10, cta: 4 initialized @(16928,0)
GPGPU-Sim uArch: Shader 12 finished CTA #2 (16935,0), 5 CTAs running
GPGPU-Sim uArch: core: 12, cta: 2 initialized @(16936,0)
GPGPU-Sim uArch: Shader 1 finished CTA #1 (16943,0), 5 CTAs running
GPGPU-Sim uArch: core:  1, cta: 1 initialized @(16944,0)
GPGPU-Sim uArch: Shader 1 finished CTA #3 (16961,0), 5 CTAs running
GPGPU-Sim uArch: core:  1, cta: 3 initialized @(16962,0)
GPGPU-Sim uArch: Shader 14 finished CTA #4 (16966,0), 5 CTAs running
GPGPU-Sim uArch: core: 14, cta: 4 initialized @(16967,0)
GPGPU-Sim uArch: Shader 12 finished CTA #1 (16973,0), 5 CTAs running
GPGPU-Sim uArch: core: 12, cta: 1 initialized @(16974,0)
GPGPU-Sim uArch: Shader 7 finished CTA #3 (17025,0), 5 CTAs running
GPGPU-Sim uArch: core:  7, cta: 3 initialized @(17026,0)
GPGPU-Sim uArch: Shader 6 finished CTA #4 (17045,0), 5 CTAs running
GPGPU-Sim uArch: core:  6, cta: 4 initialized @(17046,0)
GPGPU-Sim uArch: Shader 10 finished CTA #0 (17106,0), 5 CTAs running
GPGPU-Sim uArch: core: 10, cta: 0 initialized @(17107,0)
GPGPU-Sim uArch: Shader 11 finished CTA #5 (17108,0), 5 CTAs running
GPGPU-Sim uArch: core: 11, cta: 5 initialized @(17109,0)
GPGPU-Sim uArch: Shader 4 finished CTA #2 (17109,0), 5 CTAs running
GPGPU-Sim uArch: core:  4, cta: 2 initialized @(17110,0)
GPGPU-Sim uArch: Shader 11 finished CTA #3 (17133,0), 5 CTAs running
GPGPU-Sim uArch: core: 11, cta: 3 initialized @(17134,0)
GPGPU-Sim uArch: Shader 14 finished CTA #0 (17146,0), 5 CTAs running
GPGPU-Sim uArch: core: 14, cta: 0 initialized @(17147,0)
GPGPU-Sim uArch: Shader 6 finished CTA #0 (17185,0), 5 CTAs running
GPGPU-Sim uArch: core:  6, cta: 0 initialized @(17186,0)
GPGPU-Sim uArch: Shader 7 finished CTA #1 (17201,0), 5 CTAs running
GPGPU-Sim uArch: core:  7, cta: 1 initialized @(17202,0)
GPGPU-Sim uArch: Shader 11 finished CTA #4 (17203,0), 5 CTAs running
GPGPU-Sim uArch: core: 11, cta: 4 initialized @(17204,0)
GPGPU-Sim uArch: Shader 12 finished CTA #0 (17208,0), 5 CTAs running
GPGPU-Sim uArch: core: 12, cta: 0 initialized @(17209,0)
GPGPU-Sim uArch: Shader 6 finished CTA #5 (17223,0), 5 CTAs running
GPGPU-Sim uArch: core:  6, cta: 5 initialized @(17224,0)
GPGPU-Sim uArch: Shader 3 finished CTA #3 (17276,0), 5 CTAs running
GPGPU-Sim uArch: core:  3, cta: 3 initialized @(17277,0)
GPGPU-Sim uArch: Shader 4 finished CTA #1 (17309,0), 5 CTAs running
GPGPU-Sim uArch: core:  4, cta: 1 initialized @(17310,0)
GPGPU-Sim uArch: Shader 3 finished CTA #4 (17339,0), 5 CTAs running
GPGPU-Sim uArch: core:  3, cta: 4 initialized @(17340,0)
GPGPU-Sim uArch: Shader 11 finished CTA #0 (17360,0), 5 CTAs running
GPGPU-Sim uArch: core: 11, cta: 0 initialized @(17361,0)
GPGPU-Sim uArch: Shader 4 finished CTA #0 (17380,0), 5 CTAs running
GPGPU-Sim uArch: core:  4, cta: 0 initialized @(17381,0)
GPGPU-Sim uArch: Shader 5 finished CTA #0 (17399,0), 5 CTAs running
GPGPU-Sim uArch: core:  5, cta: 0 initialized @(17400,0)
GPGPU-Sim uArch: Shader 9 finished CTA #3 (17407,0), 5 CTAs running
GPGPU-Sim uArch: core:  9, cta: 3 initialized @(17408,0)
GPGPU-Sim uArch: Shader 14 finished CTA #2 (17411,0), 5 CTAs running
GPGPU-Sim uArch: core: 14, cta: 2 initialized @(17412,0)
GPGPU-Sim uArch: Shader 3 finished CTA #1 (17417,0), 5 CTAs running
GPGPU-Sim uArch: core:  3, cta: 1 initialized @(17418,0)
GPGPU-Sim uArch: Shader 3 finished CTA #5 (17471,0), 5 CTAs running
GPGPU-Sim uArch: Shader 6 finished CTA #1 (17471,0), 5 CTAs running
GPGPU-Sim uArch: core:  6, cta: 1 initialized @(17472,0)
GPGPU-Sim uArch: core:  3, cta: 5 initialized @(17472,0)
GPGPU-Sim uArch: Shader 7 finished CTA #2 (17485,0), 5 CTAs running
GPGPU-Sim uArch: core:  7, cta: 2 initialized @(17486,0)
GPGPU-Sim uArch: Shader 5 finished CTA #3 (17581,0), 5 CTAs running
GPGPU-Sim uArch: core:  5, cta: 3 initialized @(17582,0)
GPGPU-Sim uArch: Shader 14 finished CTA #1 (17601,0), 5 CTAs running
GPGPU-Sim uArch: core: 14, cta: 1 initialized @(17602,0)
GPGPU-Sim uArch: Shader 0 finished CTA #4 (17637,0), 5 CTAs running
GPGPU-Sim uArch: core:  0, cta: 4 initialized @(17638,0)
GPGPU-Sim uArch: Shader 7 finished CTA #5 (17654,0), 5 CTAs running
GPGPU-Sim uArch: core:  7, cta: 5 initialized @(17655,0)
GPGPU-Sim uArch: Shader 5 finished CTA #1 (17660,0), 5 CTAs running
GPGPU-Sim uArch: core:  5, cta: 1 initialized @(17661,0)
GPGPU-Sim uArch: Shader 14 finished CTA #5 (17680,0), 5 CTAs running
GPGPU-Sim uArch: core: 14, cta: 5 initialized @(17681,0)
GPGPU-Sim uArch: Shader 14 finished CTA #3 (17691,0), 5 CTAs running
GPGPU-Sim uArch: core: 14, cta: 3 initialized @(17692,0)
GPGPU-Sim uArch: Shader 6 finished CTA #2 (17739,0), 5 CTAs running
GPGPU-Sim uArch: core:  6, cta: 2 initialized @(17740,0)
GPGPU-Sim uArch: Shader 4 finished CTA #3 (17768,0), 5 CTAs running
GPGPU-Sim uArch: core:  4, cta: 3 initialized @(17769,0)
GPGPU-Sim uArch: Shader 11 finished CTA #2 (17822,0), 5 CTAs running
GPGPU-Sim uArch: core: 11, cta: 2 initialized @(17823,0)
GPGPU-Sim uArch: Shader 0 finished CTA #3 (17834,0), 5 CTAs running
GPGPU-Sim uArch: core:  0, cta: 3 initialized @(17835,0)
GPGPU-Sim uArch: Shader 0 finished CTA #5 (17864,0), 5 CTAs running
GPGPU-Sim uArch: core:  0, cta: 5 initialized @(17865,0)
GPGPU-Sim uArch: Shader 7 finished CTA #4 (17902,0), 5 CTAs running
GPGPU-Sim uArch: core:  7, cta: 4 initialized @(17903,0)
GPGPU-Sim uArch: Shader 8 finished CTA #0 (17904,0), 5 CTAs running
GPGPU-Sim uArch: core:  8, cta: 0 initialized @(17905,0)
GPGPU-Sim uArch: Shader 1 finished CTA #4 (17918,0), 5 CTAs running
GPGPU-Sim uArch: core:  1, cta: 4 initialized @(17919,0)
GPGPU-Sim uArch: Shader 5 finished CTA #2 (17942,0), 5 CTAs running
GPGPU-Sim uArch: core:  5, cta: 2 initialized @(17943,0)
GPGPU-Sim uArch: Shader 7 finished CTA #0 (17999,0), 5 CTAs running
GPGPU-Sim uArch: core:  7, cta: 0 initialized @(18000,0)
GPGPU-Sim uArch: Shader 1 finished CTA #5 (18083,0), 5 CTAs running
GPGPU-Sim uArch: core:  1, cta: 5 initialized @(18084,0)
GPGPU-Sim uArch: Shader 8 finished CTA #2 (18098,0), 5 CTAs running
GPGPU-Sim uArch: core:  8, cta: 2 initialized @(18099,0)
GPGPU-Sim uArch: Shader 2 finished CTA #4 (18158,0), 5 CTAs running
GPGPU-Sim uArch: core:  2, cta: 4 initialized @(18159,0)
GPGPU-Sim uArch: Shader 2 finished CTA #1 (18288,0), 5 CTAs running
GPGPU-Sim uArch: core:  2, cta: 1 initialized @(18289,0)
GPGPU-Sim uArch: Shader 0 finished CTA #2 (18338,0), 5 CTAs running
GPGPU-Sim uArch: core:  0, cta: 2 initialized @(18339,0)
GPGPU-Sim uArch: Shader 8 finished CTA #5 (18546,0), 5 CTAs running
GPGPU-Sim uArch: core:  8, cta: 5 initialized @(18547,0)
GPGPU-Sim uArch: Shader 2 finished CTA #2 (18693,0), 5 CTAs running
GPGPU-Sim uArch: core:  2, cta: 2 initialized @(18694,0)
GPGPU-Sim uArch: Shader 8 finished CTA #1 (18716,0), 5 CTAs running
GPGPU-Sim uArch: core:  8, cta: 1 initialized @(18717,0)
GPGPU-Sim uArch: Shader 8 finished CTA #4 (18742,0), 5 CTAs running
GPGPU-Sim uArch: core:  8, cta: 4 initialized @(18743,0)
GPGPU-Sim uArch: Shader 5 finished CTA #5 (18759,0), 5 CTAs running
GPGPU-Sim uArch: core:  5, cta: 5 initialized @(18760,0)
GPGPU-Sim uArch: Shader 3 finished CTA #0 (18766,0), 5 CTAs running
GPGPU-Sim uArch: core:  3, cta: 0 initialized @(18767,0)
GPGPU-Sim uArch: Shader 0 finished CTA #0 (18884,0), 5 CTAs running
GPGPU-Sim uArch: core:  0, cta: 0 initialized @(18885,0)
GPGPU-Sim uArch: Shader 2 finished CTA #5 (18983,0), 5 CTAs running
GPGPU-Sim uArch: core:  2, cta: 5 initialized @(18984,0)
GPGPU-Sim uArch: Shader 6 finished CTA #3 (19002,0), 5 CTAs running
GPGPU-Sim uArch: core:  6, cta: 3 initialized @(19003,0)
GPGPU-Sim uArch: Shader 8 finished CTA #3 (19030,0), 5 CTAs running
GPGPU-Sim uArch: core:  8, cta: 3 initialized @(19031,0)
GPGPU-Sim uArch: Shader 1 finished CTA #2 (19062,0), 5 CTAs running
GPGPU-Sim uArch: core:  1, cta: 2 initialized @(19063,0)
GPGPU-Sim uArch: Shader 4 finished CTA #4 (19122,0), 5 CTAs running
GPGPU-Sim uArch: core:  4, cta: 4 initialized @(19123,0)
GPGPU-Sim uArch: Shader 2 finished CTA #3 (19166,0), 5 CTAs running
GPGPU-Sim uArch: core:  2, cta: 3 initialized @(19167,0)
GPGPU-Sim uArch: Shader 1 finished CTA #0 (19168,0), 5 CTAs running
GPGPU-Sim uArch: core:  1, cta: 0 initialized @(19169,0)
GPGPU-Sim uArch: Shader 4 finished CTA #5 (19252,0), 5 CTAs running
GPGPU-Sim uArch: core:  4, cta: 5 initialized @(19253,0)
GPGPU-Sim uArch: Shader 9 finished CTA #0 (19292,0), 5 CTAs running
GPGPU-Sim uArch: core:  9, cta: 0 initialized @(19293,0)
GPGPU-Sim uArch: Shader 10 finished CTA #2 (19420,0), 5 CTAs running
GPGPU-Sim uArch: core: 10, cta: 2 initialized @(19421,0)
GPGPU-Sim uArch: Shader 13 finished CTA #2 (19492,0), 5 CTAs running
GPGPU-Sim uArch: core: 13, cta: 2 initialized @(19493,0)
GPGPU-Sim uArch: Shader 1 finished CTA #1 (19498,0), 5 CTAs running
GPGPU-Sim uArch: core:  1, cta: 1 initialized @(19499,0)
GPGPU-Sim uArch: Shader 13 finished CTA #3 (19668,0), 5 CTAs running
GPGPU-Sim uArch: core: 13, cta: 3 initialized @(19669,0)
GPGPU-Sim uArch: Shader 9 finished CTA #5 (19678,0), 5 CTAs running
GPGPU-Sim uArch: core:  9, cta: 5 initialized @(19679,0)
GPGPU-Sim uArch: Shader 10 finished CTA #3 (19694,0), 5 CTAs running
GPGPU-Sim uArch: core: 10, cta: 3 initialized @(19695,0)
GPGPU-Sim uArch: Shader 13 finished CTA #1 (19737,0), 5 CTAs running
GPGPU-Sim uArch: core: 13, cta: 1 initialized @(19738,0)
GPGPU-Sim uArch: Shader 0 finished CTA #1 (19756,0), 5 CTAs running
GPGPU-Sim uArch: core:  0, cta: 1 initialized @(19757,0)
GPGPU-Sim uArch: Shader 13 finished CTA #4 (19796,0), 5 CTAs running
GPGPU-Sim uArch: core: 13, cta: 4 initialized @(19797,0)
GPGPU-Sim uArch: Shader 2 finished CTA #0 (19811,0), 5 CTAs running
GPGPU-Sim uArch: core:  2, cta: 0 initialized @(19812,0)
GPGPU-Sim uArch: Shader 13 finished CTA #5 (19821,0), 5 CTAs running
GPGPU-Sim uArch: core: 13, cta: 5 initialized @(19822,0)
GPGPU-Sim uArch: Shader 1 finished CTA #3 (19904,0), 5 CTAs running
GPGPU-Sim uArch: core:  1, cta: 3 initialized @(19905,0)
GPGPU-Sim uArch: Shader 13 finished CTA #0 (19920,0), 5 CTAs running
GPGPU-Sim uArch: core: 13, cta: 0 initialized @(19921,0)
GPGPU-Sim uArch: Shader 7 finished CTA #1 (19968,0), 5 CTAs running
GPGPU-Sim uArch: core:  7, cta: 1 initialized @(19969,0)
GPGPU-Sim uArch: Shader 10 finished CTA #1 (19990,0), 5 CTAs running
GPGPU-Sim uArch: core: 10, cta: 1 initialized @(19991,0)
GPGPU-Sim uArch: Shader 9 finished CTA #1 (20064,0), 5 CTAs running
GPGPU-Sim uArch: core:  9, cta: 1 initialized @(20065,0)
GPGPU-Sim uArch: Shader 12 finished CTA #3 (20066,0), 5 CTAs running
GPGPU-Sim uArch: core: 12, cta: 3 initialized @(20067,0)
GPGPU-Sim uArch: Shader 6 finished CTA #4 (20138,0), 5 CTAs running
GPGPU-Sim uArch: core:  6, cta: 4 initialized @(20139,0)
GPGPU-Sim uArch: Shader 9 finished CTA #2 (20194,0), 5 CTAs running
GPGPU-Sim uArch: core:  9, cta: 2 initialized @(20195,0)
GPGPU-Sim uArch: Shader 7 finished CTA #2 (20216,0), 5 CTAs running
GPGPU-Sim uArch: core:  7, cta: 2 initialized @(20217,0)
GPGPU-Sim uArch: Shader 6 finished CTA #1 (20250,0), 5 CTAs running
GPGPU-Sim uArch: core:  6, cta: 1 initialized @(20251,0)
GPGPU-Sim uArch: Shader 6 finished CTA #0 (20265,0), 5 CTAs running
GPGPU-Sim uArch: core:  6, cta: 0 initialized @(20266,0)
GPGPU-Sim uArch: Shader 5 finished CTA #4 (20268,0), 5 CTAs running
GPGPU-Sim uArch: core:  5, cta: 4 initialized @(20269,0)
GPGPU-Sim uArch: Shader 10 finished CTA #5 (20324,0), 5 CTAs running
GPGPU-Sim uArch: core: 10, cta: 5 initialized @(20325,0)
GPGPU-Sim uArch: Shader 10 finished CTA #4 (20375,0), 5 CTAs running
GPGPU-Sim uArch: core: 10, cta: 4 initialized @(20376,0)
GPGPU-Sim uArch: Shader 7 finished CTA #3 (20440,0), 5 CTAs running
GPGPU-Sim uArch: core:  7, cta: 3 initialized @(20441,0)
GPGPU-Sim uArch: Shader 12 finished CTA #4 (20528,0), 5 CTAs running
GPGPU-Sim uArch: core: 12, cta: 4 initialized @(20529,0)
GPGPU-Sim uArch: Shader 9 finished CTA #4 (20569,0), 5 CTAs running
GPGPU-Sim uArch: core:  9, cta: 4 initialized @(20570,0)
GPGPU-Sim uArch: Shader 12 finished CTA #5 (20579,0), 5 CTAs running
GPGPU-Sim uArch: core: 12, cta: 5 initialized @(20580,0)
GPGPU-Sim uArch: Shader 10 finished CTA #0 (20583,0), 5 CTAs running
GPGPU-Sim uArch: core: 10, cta: 0 initialized @(20584,0)
GPGPU-Sim uArch: Shader 12 finished CTA #1 (20643,0), 5 CTAs running
GPGPU-Sim uArch: core: 12, cta: 1 initialized @(20644,0)
GPGPU-Sim uArch: Shader 6 finished CTA #5 (20670,0), 5 CTAs running
GPGPU-Sim uArch: core:  6, cta: 5 initialized @(20671,0)
GPGPU-Sim uArch: Shader 12 finished CTA #2 (20694,0), 5 CTAs running
GPGPU-Sim uArch: core: 12, cta: 2 initialized @(20695,0)
GPGPU-Sim uArch: Shader 5 finished CTA #3 (20748,0), 5 CTAs running
GPGPU-Sim uArch: core:  5, cta: 3 initialized @(20749,0)
GPGPU-Sim uArch: Shader 6 finished CTA #2 (20777,0), 5 CTAs running
GPGPU-Sim uArch: core:  6, cta: 2 initialized @(20778,0)
GPGPU-Sim uArch: Shader 5 finished CTA #1 (20814,0), 5 CTAs running
GPGPU-Sim uArch: core:  5, cta: 1 initialized @(20815,0)
GPGPU-Sim uArch: Shader 7 finished CTA #5 (20828,0), 5 CTAs running
GPGPU-Sim uArch: core:  7, cta: 5 initialized @(20829,0)
GPGPU-Sim uArch: Shader 4 finished CTA #2 (20850,0), 5 CTAs running
GPGPU-Sim uArch: core:  4, cta: 2 initialized @(20851,0)
GPGPU-Sim uArch: Shader 5 finished CTA #0 (20884,0), 5 CTAs running
GPGPU-Sim uArch: core:  5, cta: 0 initialized @(20885,0)
GPGPU-Sim uArch: Shader 4 finished CTA #1 (20899,0), 5 CTAs running
GPGPU-Sim uArch: core:  4, cta: 1 initialized @(20900,0)
GPGPU-Sim uArch: Shader 7 finished CTA #4 (21086,0), 5 CTAs running
GPGPU-Sim uArch: core:  7, cta: 4 initialized @(21087,0)
GPGPU-Sim uArch: Shader 11 finished CTA #1 (21090,0), 5 CTAs running
GPGPU-Sim uArch: core: 11, cta: 1 initialized @(21091,0)
GPGPU-Sim uArch: Shader 4 finished CTA #0 (21134,0), 5 CTAs running
GPGPU-Sim uArch: core:  4, cta: 0 initialized @(21135,0)
GPGPU-Sim uArch: Shader 11 finished CTA #5 (21169,0), 5 CTAs running
GPGPU-Sim uArch: core: 11, cta: 5 initialized @(21170,0)
GPGPU-Sim uArch: Shader 12 finished CTA #0 (21198,0), 5 CTAs running
GPGPU-Sim uArch: core: 12, cta: 0 initialized @(21199,0)
GPGPU-Sim uArch: Shader 3 finished CTA #2 (21344,0), 5 CTAs running
GPGPU-Sim uArch: core:  3, cta: 2 initialized @(21345,0)
GPGPU-Sim uArch: Shader 14 finished CTA #2 (21374,0), 5 CTAs running
GPGPU-Sim uArch: core: 14, cta: 2 initialized @(21375,0)
GPGPU-Sim uArch: Shader 7 finished CTA #0 (21392,0), 5 CTAs running
GPGPU-Sim uArch: core:  7, cta: 0 initialized @(21393,0)
GPGPU-Sim uArch: Shader 4 finished CTA #3 (21411,0), 5 CTAs running
GPGPU-Sim uArch: core:  4, cta: 3 initialized @(21412,0)
GPGPU-Sim uArch: Shader 8 finished CTA #3 (21433,0), 5 CTAs running
GPGPU-Sim uArch: core:  8, cta: 3 initialized @(21434,0)
GPGPU-Sim uArch: Shader 11 finished CTA #4 (21495,0), 5 CTAs running
GPGPU-Sim uArch: core: 11, cta: 4 initialized @(21496,0)
GPGPU-Sim uArch: Shader 8 finished CTA #2 (21497,0), 5 CTAs running
GPGPU-Sim uArch: core:  8, cta: 2 initialized @(21498,0)
GPGPU-Sim uArch: Shader 5 finished CTA #2 (21519,0), 5 CTAs running
GPGPU-Sim uArch: core:  5, cta: 2 initialized @(21520,0)
GPGPU-Sim uArch: Shader 11 finished CTA #0 (21520,0), 5 CTAs running
GPGPU-Sim uArch: core: 11, cta: 0 initialized @(21521,0)
GPGPU-Sim uArch: Shader 11 finished CTA #3 (21536,0), 5 CTAs running
GPGPU-Sim uArch: core: 11, cta: 3 initialized @(21537,0)
GPGPU-Sim uArch: Shader 8 finished CTA #0 (21590,0), 5 CTAs running
GPGPU-Sim uArch: core:  8, cta: 0 initialized @(21591,0)
GPGPU-Sim uArch: Shader 14 finished CTA #4 (21591,0), 5 CTAs running
GPGPU-Sim uArch: core: 14, cta: 4 initialized @(21592,0)
GPGPU-Sim uArch: Shader 1 finished CTA #5 (21597,0), 5 CTAs running
GPGPU-Sim uArch: core:  1, cta: 5 initialized @(21598,0)
GPGPU-Sim uArch: Shader 1 finished CTA #4 (21615,0), 5 CTAs running
GPGPU-Sim uArch: core:  1, cta: 4 initialized @(21616,0)
GPGPU-Sim uArch: Shader 8 finished CTA #5 (21635,0), 5 CTAs running
GPGPU-Sim uArch: core:  8, cta: 5 initialized @(21636,0)
GPGPU-Sim uArch: Shader 14 finished CTA #5 (21667,0), 5 CTAs running
GPGPU-Sim uArch: core: 14, cta: 5 initialized @(21668,0)
GPGPU-Sim uArch: Shader 14 finished CTA #0 (21688,0), 5 CTAs running
GPGPU-Sim uArch: core: 14, cta: 0 initialized @(21689,0)
GPGPU-Sim uArch: Shader 9 finished CTA #3 (21765,0), 5 CTAs running
GPGPU-Sim uArch: core:  9, cta: 3 initialized @(21766,0)
GPGPU-Sim uArch: Shader 14 finished CTA #3 (21794,0), 5 CTAs running
GPGPU-Sim uArch: core: 14, cta: 3 initialized @(21795,0)
GPGPU-Sim uArch: Shader 8 finished CTA #1 (21835,0), 5 CTAs running
GPGPU-Sim uArch: core:  8, cta: 1 initialized @(21836,0)
GPGPU-Sim uArch: Shader 2 finished CTA #4 (21847,0), 5 CTAs running
GPGPU-Sim uArch: core:  2, cta: 4 initialized @(21848,0)
GPGPU-Sim uArch: Shader 2 finished CTA #2 (21923,0), 5 CTAs running
GPGPU-Sim uArch: core:  2, cta: 2 initialized @(21924,0)
GPGPU-Sim uArch: Shader 2 finished CTA #1 (21999,0), 5 CTAs running
GPGPU-Sim uArch: core:  2, cta: 1 initialized @(22000,0)
GPGPU-Sim uArch: Shader 3 finished CTA #4 (22089,0), 5 CTAs running
GPGPU-Sim uArch: core:  3, cta: 4 initialized @(22090,0)
GPGPU-Sim uArch: Shader 8 finished CTA #4 (22132,0), 5 CTAs running
GPGPU-Sim uArch: core:  8, cta: 4 initialized @(22133,0)
GPGPU-Sim uArch: Shader 14 finished CTA #1 (22134,0), 5 CTAs running
GPGPU-Sim uArch: core: 14, cta: 1 initialized @(22135,0)
[...]
Stall:1932383	W0_Idle:58103	W0_Scoreboard:1182204	W1:0	W2:0	W3:0	W4:0	W5:0	W6:0	W7:0	W8:0	W9:0	W10:0	W11:0	W12:0	W13:0	W14:0	W15:0	W16:0	W17:0	W18:0	W19:0	W20:0	W21:0	W22:0	W23:0	W24:0	W25:0	W26:0	W27:0	W28:0	W29:0	W30:0	W31:79719	W32:1850745
traffic_breakdown_coretomem[CONST_ACC_R] = 120 {8:15,}
traffic_breakdown_coretomem[GLOBAL_ACC_R] = 1538080 {8:192260,}
traffic_breakdown_coretomem[GLOBAL_ACC_W] = 4447744 {136:32704,}
traffic_breakdown_coretomem[INST_ACC_R] = 480 {8:60,}
traffic_breakdown_memtocore[CONST_ACC_R] = 1080 {72:15,}
traffic_breakdown_memtocore[GLOBAL_ACC_R] = 26147360 {136:192260,}
traffic_breakdown_memtocore[GLOBAL_ACC_W] = 261632 {8:32704,}
traffic_breakdown_memtocore[INST_ACC_R] = 8160 {136:60,}
maxmrqlatency = 285 
maxdqlatency = 0 
maxmflatency = 731 
max_icnt2mem_latency = 416 
max_icnt2sh_latency = 171214 
mrq_lat_table:49130 	12189 	5883 	8470 	10627 	7726 	3471 	676 	9 	0 	0 	0 	0 	0 	0 	0 	0 	0 	0 	0 	0 	0 	0 	0 	0 	0 	0 	0 	0 	0 	0 	0 	
dq_lat_table:0 	0 	0 	0 	0 	0 	0 	0 	0 	0 	0 	0 	0 	0 	0 	0 	0 	0 	0 	0 	0 	0 	0 	0 	0 	0 	0 	0 	0 	0 	0 	0 	
mf_lat_table:0 	0 	0 	0 	0 	0 	0 	97659 	124898 	2422 	0 	0 	0 	0 	0 	0 	0 	0 	0 	0 	0 	0 	0 	0 	0 	0 	0 	0 	0 	0 	0 	0 	
icnt2mem_lat_table:0 	0 	0 	143077 	44806 	17193 	13406 	6346 	211 	0 	0 	0 	0 	0 	0 	0 	0 	0 	0 	0 	0 	0 	0 	0 	
icnt2sh_lat_table:0 	0 	0 	7662 	100945 	80128 	3540 	0 	0 	0 	0 	110 	740 	1530 	3293 	6507 	12679 	7845 	0 	0 	0 	0 	0 	0 	
mf_lat_pw_table:0 	0 	0 	0 	0 	0 	0 	0 	0 	0 	0 	0 	0 	0 	0 	0 	0 	0 	0 	0 	0 	0 	0 	0 	0 	0 	0 	0 	0 	0 	0 	0 	
maximum concurrent accesses to same row:
dram[0]:        64        64        64        64        64        64        64        64        64        64        64        64        64        64        64        64 
dram[1]:        64        64        64        64        64        64        64        64        64        64        64        64        64        64        64        64 
dram[2]:        64        64        64        64        64        64        64        64        64        64        64        64        64        64        64        64 
dram[3]:        64        64        64        64        64        64        64        64        64        64        64        64        64        64        64        64 
dram[4]:        64        64        64        64        64        64        64        64        64        64        64        64        64        64        64        64 
dram[5]:        64        64        64        64        64        64        64        64        64        64        64        64        64        64        64        64 
maximum service time to same row:
dram[0]:     10160      9608     10324      9902      9739      9373     10052      9560      9820     10074      9865      9709      9479      9020      9831      9619 
dram[1]:      9171      9251     10054     10147      9550      9982      9802      9267      9702      9829      9500      9892      9450      9834      9305      9923 
dram[2]:      9700     10040      9940      9879      9425      9766      9633      9753      9864      9713      9821      9589      9075      9387      9666      9456 
dram[3]:      9151      8836     10225      9719      9973      9350      9665      9520      9890      9676     10043      9533      9912      9298      9845      9342 
dram[4]:     10057      9434      9928      9694      9692      9591     10041      9606      9780      9940      9834      9602      9433      9473     10052      9809 
dram[5]:      9130      9271      9706     10157      9518     10035      9396      9335      9558      9665      9083      9437      9490      9640      9428      9731 
average row accesses per activate:
dram[0]: 44.304348 48.571430 48.761906 48.761906 47.000000 47.000000 48.000000 48.000000 48.000000 48.000000 45.818180 45.818180 47.238094 47.238094 47.238094 47.238094 
dram[1]: 46.272728 48.571430 48.761906 48.761906 47.000000 47.000000 48.000000 48.000000 48.000000 48.000000 45.818180 45.818180 47.238094 47.238094 47.238094 47.238094 
dram[2]: 48.380951 48.571430 48.761906 48.761906 47.000000 47.090908 48.000000 48.000000 48.000000 48.000000 45.818180 45.818180 47.238094 47.238094 47.238094 47.238094 
dram[3]: 48.380951 48.571430 48.761906 48.761906 47.000000 47.090908 48.000000 48.000000 48.000000 48.000000 45.818180 45.818180 47.238094 47.238094 47.238094 47.238094 
dram[4]: 48.571430 48.571430 48.761906 48.761906 47.000000 47.090908 48.000000 48.000000 48.000000 48.000000 45.818180 45.818180 47.238094 47.238094 47.238094 47.238094 
dram[5]: 48.571430 48.571430 48.761906 48.761906 47.000000 47.090908 48.000000 48.000000 48.000000 48.000000 45.818180 45.818180 47.238094 47.238094 47.238094 47.238094 
average row locality = 98181/2067 = 47.499275
number of total memory accesses made:
dram[0]:         0         0         0         0         0         0         0         0         0         0         0         0         0         0         0         0 
dram[1]:         0         0         0         0         0         0         0         0         0         0         0         0         0         0         0         0 
dram[2]:         0         0         0         0         0         0         0         0         0         0         0         0         0         0         0         0 
dram[3]:         0         0         0         0         0         0         0         0         0         0         0         0         0         0         0         0 
dram[4]:         0         0         0         0         0         0         0         0         0         0         0         0         0         0         0         0 
dram[5]:         0         0         0         0         0         0         0         0         0         0         0         0         0         0         0         0 
total accesses: 0
min_bank_accesses = 0!
min_chip_accesses = 0!
number of total read accesses:
dram[0]:       671       670       672       672       682       682       704       704       704       704       680       680       672       672       672       672 
dram[1]:       670       670       672       672       682       682       704       704       704       704       680       680       672       672       672       672 
dram[2]:       668       670       672       672       682       684       704       704       704       704       680       680       672       672       672       672 
dram[3]:       668       670       672       672       682       684       704       704       704       704       680       680       672       672       672       672 
dram[4]:       670       670       672       672       682       684       704       704       704       704       680       680       672       672       672       672 
dram[5]:       670       670       672       672       682       684       704       704       704       704       680       680       672       672       672       672 
total reads: 65477
bank skew: 704/668 = 1.05
chip skew: 10914/10912 = 1.00
number of total write accesses:
dram[0]:       348       350       352       352       352       352       352       352       352       352       328       328       320       320       320       320 
dram[1]:       348       350       352       352       352       352       352       352       352       352       328       328       320       320       320       320 
dram[2]:       348       350       352       352       352       352       352       352       352       352       328       328       320       320       320       320 
dram[3]:       348       350       352       352       352       352       352       352       352       352       328       328       320       320       320       320 
dram[4]:       350       350       352       352       352       352       352       352       352       352       328       328       320       320       320       320 
dram[5]:       350       350       352       352       352       352       352       352       352       352       328       328       320       320       320       320 
total reads: 32704
bank skew: 352/320 = 1.10
chip skew: 5452/5450 = 1.00
average mf latency per bank:
dram[0]:        626       617       611       636       589       682       638       726       628       683       646       740       634       681       698       690
dram[1]:        633       563       634       549       657       592       739       620       688       569       668       640       692       604       685       605
dram[2]:        602       600       600       602       662       611       726       628       668       611       712       637       698       628       695       670
dram[3]:        544       649       542       629       590       649       599       695       573       675       602       642       592       634       585       651
dram[4]:        595       609       627       618       590       698       629       709       615       669       660       719       643       699       671       669
dram[5]:        627       579       651       557       680       640       712       654       664       574       657       617       671       605       701       605
maximum mf latency per bank:
dram[0]:        661       593       577       620       628       669       608       679       650       642       681       690       579       635       592       574
dram[1]:        677       604       623       608       631       586       646       661       724       593       558       685       684       578       661       518
dram[2]:        578       597       632       693       574       607       591       618       628       604       596       634       608       659       664       572
dram[3]:        607       665       548       657       605       593       587       671       574       607       590       715       586       601       577       613
dram[4]:        584       571       660       607       609       602       609       632       587       598       573       596       642       625       584       625
dram[5]:        731       646       639       517       601       592       611       663       728       670       618       607       575       599       643       625
Memory Partition 0: 
Cache L2_bank_000:
MSHR contents

Cache L2_bank_001:
MSHR contents

In Dram Latency Queue (total = 0): 
DRAM[0]: 16 bks, busW=4 BL=8 CL=12, tRRD=2 tCCD=6, tRCD=12 tRAS=28 tRP=12 tRC=40
n_cmd=222813 n_nop=189411 n_act=346 n_pre=330 n_req=16363 n_rd=21826 n_write=10900 bw_util=0.2938
n_activity=167423 dram_eff=0.3909
bk0: 1342a 208050i bk1: 1340a 206768i bk2: 1344a 206317i bk3: 1344a 205793i bk4: 1364a 207404i bk5: 1364a 206030i bk6: 1408a 206098i bk7: 1408a 205811i bk8: 1408a 207192i bk9: 1408a 207007i bk10: 1360a 206769i bk11: 1360a 206377i bk12: 1344a 207630i bk13: 1344a 206623i bk14: 1344a 207604i bk15: 1344a 207308i 
dram_util_bins: 0 0 0 0 0 0 0 0 0 0
dram_eff_bins: 0 0 0 0 0 0 0 0 0 0
mrqq: max=16 avg=1.03601
Memory Partition 1: 
Cache L2_bank_002:
MSHR contents

Cache L2_bank_003:
MSHR contents

In Dram Latency Queue (total = 0): 
DRAM[1]: 16 bks, busW=4 BL=8 CL=12, tRRD=2 tCCD=6, tRCD=12 tRAS=28 tRP=12 tRC=40
n_cmd=222813 n_nop=189415 n_act=345 n_pre=329 n_req=16362 n_rd=21824 n_write=10900 bw_util=0.2937
n_activity=168238 dram_eff=0.389
bk0: 1340a 207795i bk1: 1340a 207127i bk2: 1344a 206418i bk3: 1344a 206269i bk4: 1364a 206835i bk5: 1364a 206354i bk6: 1408a 205698i bk7: 1408a 205158i bk8: 1408a 207360i bk9: 1408a 206900i bk10: 1360a 207157i bk11: 1360a 207388i bk12: 1344a 207703i bk13: 1344a 207309i bk14: 1344a 207515i bk15: 1344a 207166i 
dram_util_bins: 0 0 0 0 0 0 0 0 0 0
dram_eff_bins: 0 0 0 0 0 0 0 0 0 0
mrqq: max=16 avg=1.15149
Memory Partition 2: 
Cache L2_bank_004:
MSHR contents

Cache L2_bank_005:
MSHR contents

In Dram Latency Queue (total = 0): 
DRAM[2]: 16 bks, busW=4 BL=8 CL=12, tRRD=2 tCCD=6, tRCD=12 tRAS=28 tRP=12 tRC=40
n_cmd=222813 n_nop=189417 n_act=344 n_pre=328 n_req=16362 n_rd=21824 n_write=10900 bw_util=0.2937
n_activity=168097 dram_eff=0.3893
bk0: 1336a 207429i bk1: 1340a 207244i bk2: 1344a 206777i bk3: 1344a 205919i bk4: 1364a 206641i bk5: 1368a 206038i bk6: 1408a 206111i bk7: 1408a 205130i bk8: 1408a 206780i bk9: 1408a 206462i bk10: 1360a 206980i bk11: 1360a 206846i bk12: 1344a 207185i bk13: 1344a 207369i bk14: 1344a 208528i bk15: 1344a 206974i 
dram_util_bins: 0 0 0 0 0 0 0 0 0 0
dram_eff_bins: 0 0 0 0 0 0 0 0 0 0
mrqq: max=16 avg=1.10948
Memory Partition 3: 
Cache L2_bank_006:
MSHR contents

Cache L2_bank_007:
MSHR contents

In Dram Latency Queue (total = 0): 
DRAM[3]: 16 bks, busW=4 BL=8 CL=12, tRRD=2 tCCD=6, tRCD=12 tRAS=28 tRP=12 tRC=40
n_cmd=222813 n_nop=189417 n_act=344 n_pre=328 n_req=16362 n_rd=21824 n_write=10900 bw_util=0.2937
n_activity=169152 dram_eff=0.3869
bk0: 1336a 207502i bk1: 1340a 207217i bk2: 1344a 206543i bk3: 1344a 206317i bk4: 1364a 207507i bk5: 1368a 206425i bk6: 1408a 206901i bk7: 1408a 206149i bk8: 1408a 207441i bk9: 1408a 206376i bk10: 1360a 207450i bk11: 1360a 206398i bk12: 1344a 207952i bk13: 1344a 207547i bk14: 1344a 208299i bk15: 1344a 207128i 
dram_util_bins: 0 0 0 0 0 0 0 0 0 0
dram_eff_bins: 0 0 0 0 0 0 0 0 0 0
mrqq: max=16 avg=1.05465
Memory Partition 4: 
Cache L2_bank_008:
MSHR contents
MSHR: tag=0x807fdc80, atomic=0 1 entries : 0x7f113cecdb60 :  mf: uid=2793538, sid03:w45, part=4, addr=0x807fdc80, load , size=128, unknown  status = IN_PARTITION_DRAM (171212), 

Cache L2_bank_009:
MSHR contents

In Dram Latency Queue (total = 0): 
DRAM[4]: 16 bks, busW=4 BL=8 CL=12, tRRD=2 tCCD=6, tRCD=12 tRAS=28 tRP=12 tRC=40
n_cmd=222813 n_nop=189409 n_act=344 n_pre=328 n_req=16366 n_rd=21828 n_write=10904 bw_util=0.2938
n_activity=167140 dram_eff=0.3917
bk0: 1340a 207617i bk1: 1340a 206261i bk2: 1344a 206493i bk3: 1344a 205468i bk4: 1364a 206740i bk5: 1368a 205883i bk6: 1408a 206251i bk7: 1408a 205318i bk8: 1408a 207671i bk9: 1408a 207333i bk10: 1360a 207148i bk11: 1360a 206380i bk12: 1344a 207167i bk13: 1344a 206843i bk14: 1344a 207254i bk15: 1344a 206720i 
dram_util_bins: 0 0 0 0 0 0 0 0 0 0
dram_eff_bins: 0 0 0 0 0 0 0 0 0 0
mrqq: max=16 avg=1.05535
Memory Partition 5: 
Cache L2_bank_010:
MSHR contents

Cache L2_bank_011:
MSHR contents

In Dram Latency Queue (total = 0): 
DRAM[5]: 16 bks, busW=4 BL=8 CL=12, tRRD=2 tCCD=6, tRCD=12 tRAS=28 tRP=12 tRC=40
n_cmd=222813 n_nop=189409 n_act=344 n_pre=328 n_req=16366 n_rd=21828 n_write=10904 bw_util=0.2938
n_activity=168745 dram_eff=0.3879
bk0: 1340a 207109i bk1: 1340a 206860i bk2: 1344a 206340i bk3: 1344a 206991i bk4: 1364a 207324i bk5: 1368a 206423i bk6: 1408a 205856i bk7: 1408a 205718i bk8: 1408a 207013i bk9: 1408a 206805i bk10: 1360a 206703i bk11: 1360a 206697i bk12: 1344a 208067i bk13: 1344a 207419i bk14: 1344a 207200i bk15: 1344a 206635i 
dram_util_bins: 0 0 0 0 0 0 0 0 0 0
dram_eff_bins: 0 0 0 0 0 0 0 0 0 0
mrqq: max=16 avg=1.1087

========= L2 cache stats =========
L2_cache_bank[0]: Access = 18597, Miss = 5457, Miss_rate = 0.293, Pending_hits = 312, Reservation_fails = 444
L2_cache_bank[1]: Access = 19026, Miss = 5456, Miss_rate = 0.287, Pending_hits = 275, Reservation_fails = 33
L2_cache_bank[2]: Access = 19020, Miss = 5456, Miss_rate = 0.287, Pending_hits = 318, Reservation_fails = 308
L2_cache_bank[3]: Access = 18378, Miss = 5456, Miss_rate = 0.297, Pending_hits = 309, Reservation_fails = 137
L2_cache_bank[4]: Access = 19011, Miss = 5454, Miss_rate = 0.287, Pending_hits = 249, Reservation_fails = 34
L2_cache_bank[5]: Access = 18584, Miss = 5458, Miss_rate = 0.294, Pending_hits = 285, Reservation_fails = 183
L2_cache_bank[6]: Access = 18466, Miss = 5454, Miss_rate = 0.295, Pending_hits = 321, Reservation_fails = 109
L2_cache_bank[7]: Access = 19010, Miss = 5458, Miss_rate = 0.287, Pending_hits = 324, Reservation_fails = 114
L2_cache_bank[8]: Access = 18517, Miss = 5456, Miss_rate = 0.295, Pending_hits = 298, Reservation_fails = 66
L2_cache_bank[9]: Access = 18974, Miss = 5458, Miss_rate = 0.288, Pending_hits = 283, Reservation_fails = 38
L2_cache_bank[10]: Access = 18962, Miss = 5456, Miss_rate = 0.288, Pending_hits = 299, Reservation_fails = 109
L2_cache_bank[11]: Access = 18494, Miss = 5458, Miss_rate = 0.295, Pending_hits = 261, Reservation_fails = 134
L2_total_cache_accesses = 225039
L2_total_cache_misses = 65477
L2_total_cache_miss_rate = 0.2910
L2_total_cache_pending_hits = 3534
L2_total_cache_reservation_fails = 1709
L2_total_cache_breakdown:
	L2_cache_stats_breakdown[GLOBAL_ACC_R][HIT] = 155973
	L2_cache_stats_breakdown[GLOBAL_ACC_R][HIT_RESERVED] = 3519
	L2_cache_stats_breakdown[GLOBAL_ACC_R][MISS] = 32768
	L2_cache_stats_breakdown[GLOBAL_ACC_R][RESERVATION_FAIL] = 829
	L2_cache_stats_breakdown[CONST_ACC_R][HIT] = 11
	L2_cache_stats_breakdown[CONST_ACC_R][HIT_RESERVED] = 3
	L2_cache_stats_breakdown[CONST_ACC_R][MISS] = 1
	L2_cache_stats_breakdown[CONST_ACC_R][RESERVATION_FAIL] = 115
	L2_cache_stats_breakdown[GLOBAL_ACC_W][MISS] = 32704
	L2_cache_stats_breakdown[GLOBAL_ACC_W][RESERVATION_FAIL] = 352
	L2_cache_stats_breakdown[INST_ACC_R][HIT] = 44
	L2_cache_stats_breakdown[INST_ACC_R][HIT_RESERVED] = 12
	L2_cache_stats_breakdown[INST_ACC_R][MISS] = 4
	L2_cache_stats_breakdown[INST_ACC_R][RESERVATION_FAIL] = 413
L2_cache_data_port_util = 0.304
L2_cache_fill_port_util = 0.127

icnt_total_pkts_mem_to_simt=994349
icnt_total_pkts_simt_to_mem=355855
LD_mem_lat_dist  0 0 0 0 0 0 0 0 0 0 0 0 0 0 0 0 0 0 0 0 0 0 0 0 0 0 0
ST_mem_lat_dist  0 0 0 0 0 0 0 0 0 0 0 0 0 0 0 0 0 0 0 0 0 0 0 0 0 0 0
----------------------------Interconnect-DETAILS--------------------------------
Class 0:
Packet latency average = 22.5485
	minimum = 6
	maximum = 273
Network latency average = 17.2317
	minimum = 6
	maximum = 273
Slowest packet = 123134
Flit latency average = 15.0688
	minimum = 6
	maximum = 273
Slowest flit = 368960
Fragmentation average = 0.0453632
	minimum = 0
	maximum = 220
Injected packet rate average = 0.0973604
	minimum = 0.0857168 (at node 0)
	maximum = 0.111123 (at node 16)
Accepted packet rate average = 0.0973604
	minimum = 0.0857168 (at node 0)
	maximum = 0.111123 (at node 16)
Injected flit rate average = 0.292075
	minimum = 0.134451 (at node 0)
	maximum = 0.491931 (at node 16)
Accepted flit rate average= 0.292075
	minimum = 0.171025 (at node 18)
	maximum = 0.39649 (at node 9)
Injected packet length average = 2.99993
Accepted packet length average = 2.99993
Total in-flight flits = 0 (0 measured)
====== Overall Traffic Statistics ======
====== Traffic class 0 ======
Packet latency average = 22.5485 (1 samples)
	minimum = 6 (1 samples)
	maximum = 273 (1 samples)
Network latency average = 17.2317 (1 samples)
	minimum = 6 (1 samples)
	maximum = 273 (1 samples)
Flit latency average = 15.0688 (1 samples)
	minimum = 6 (1 samples)
	maximum = 273 (1 samples)
Fragmentation average = 0.0453632 (1 samples)
	minimum = 0 (1 samples)
	maximum = 220 (1 samples)
Injected packet rate average = 0.0973604 (1 samples)
	minimum = 0.0857168 (1 samples)
	maximum = 0.111123 (1 samples)
Accepted packet rate average = 0.0973604 (1 samples)
	minimum = 0.0857168 (1 samples)
	maximum = 0.111123 (1 samples)
Injected flit rate average = 0.292075 (1 samples)
	minimum = 0.134451 (1 samples)
	maximum = 0.491931 (1 samples)
Accepted flit rate average = 0.292075 (1 samples)
	minimum = 0.171025 (1 samples)
	maximum = 0.39649 (1 samples)
Injected packet size average = 2.99993 (1 samples)
Accepted packet size average = 2.99993 (1 samples)
Hops average = 1 (1 samples)
----------------------------END-of-Interconnect-DETAILS-------------------------


gpgpu_simulation_time = 0 days, 0 hrs, 2 min, 57 sec (177 sec)
gpgpu_simulation_rate = 324921 (inst/sec)
gpgpu_simulation_rate = 967 (cycle/sec)
GPGPU-Sim: synchronize waiting for inactive GPU simulation
GPGPU-Sim API: Stream Manager State
GPGPU-Sim: detected inactive GPU simulation thread
GPU Runtime: 176.752800s
CPU Runtime: 0.015271s
Non-Matching CPU-GPU Outputs Beyond Error Threshold of 0.05 Percent: 0
