

        *** GPGPU-Sim Simulator Version 3.2.2  [build 0] ***


GPGPU-Sim PTX: simulation mode 0 (can change with PTX_SIM_MODE_FUNC environment variable:
               1=functional simulation only, 0=detailed performance simulator)
GPGPU-Sim: Configuration options:

-network_mode                           1 # Interconnection network mode
-inter_config_file   config_fermi_islip.icnt # Interconnection network config file
-gpgpu_ptx_use_cuobjdump                    1 # Use cuobjdump to extract ptx and sass from binaries
-gpgpu_experimental_lib_support                    0 # Try to extract code from cuda libraries [Broken because of unknown cudaGetExportTable]
-gpgpu_ptx_convert_to_ptxplus                    0 # Convert SASS (native ISA) to ptxplus and run ptxplus
-gpgpu_ptx_force_max_capability                   20 # Force maximum compute capability
-gpgpu_ptx_inst_debug_to_file                    0 # Dump executed instructions' debug information to file
-gpgpu_ptx_inst_debug_file       inst_debug.txt # Executed instructions' debug output file
-gpgpu_ptx_inst_debug_thread_uid                    1 # Thread UID for executed instructions' debug output
-gpgpu_simd_model                       1 # 1 = post-dominator
-gpgpu_shader_core_pipeline              1536:32 # shader core pipeline config, i.e., {<nthread>:<warpsize>}
-gpgpu_tex_cache:l1  4:128:24,L:R:m:N:L,F:128:4,128:2 # per-shader L1 texture cache  (READ-ONLY) config  {<nsets>:<bsize>:<assoc>,<rep>:<wr>:<alloc>:<wr_alloc>,<mshr>:<N>:<merge>,<mq>:<rf>}
-gpgpu_const_cache:l1 64:64:2,L:R:f:N:L,A:2:32,4 # per-shader L1 constant memory cache  (READ-ONLY) config  {<nsets>:<bsize>:<assoc>,<rep>:<wr>:<alloc>:<wr_alloc>,<mshr>:<N>:<merge>,<mq>} 
-gpgpu_cache:il1     4:128:4,L:R:f:N:L,A:2:32,4 # shader L1 instruction cache config  {<nsets>:<bsize>:<assoc>,<rep>:<wr>:<alloc>:<wr_alloc>,<mshr>:<N>:<merge>,<mq>} 
-gpgpu_cache:dl1     32:128:4,L:L:m:N:H,A:32:8,8 # per-shader L1 data cache config  {<nsets>:<bsize>:<assoc>,<rep>:<wr>:<alloc>:<wr_alloc>,<mshr>:<N>:<merge>,<mq> | none}
-gpgpu_cache:dl1PrefL1                 none # per-shader L1 data cache config  {<nsets>:<bsize>:<assoc>,<rep>:<wr>:<alloc>:<wr_alloc>,<mshr>:<N>:<merge>,<mq> | none}
-gpgpu_cache:dl1PreShared                 none # per-shader L1 data cache config  {<nsets>:<bsize>:<assoc>,<rep>:<wr>:<alloc>:<wr_alloc>,<mshr>:<N>:<merge>,<mq> | none}
-gmem_skip_L1D                          0 # global memory access skip L1D cache (implements -Xptxas -dlcm=cg, default=no skip)
-gpgpu_perfect_mem                      0 # enable perfect memory mode (no cache miss)
-n_regfile_gating_group                    4 # group of lanes that should be read/written together)
-gpgpu_clock_gated_reg_file                    0 # enable clock gated reg file for power calculations
-gpgpu_clock_gated_lanes                    0 # enable clock gated lanes for power calculations
-gpgpu_shader_registers                32768 # Number of registers per shader core. Limits number of concurrent CTAs. (default 8192)
-gpgpu_shader_cta                       8 # Maximum number of concurrent CTAs in shader (default 8)
-gpgpu_num_cta_barriers                   16 # Maximum number of named barriers per CTA (default 16)
-gpgpu_n_clusters                      15 # number of processing clusters
-gpgpu_n_cores_per_cluster                    1 # number of simd cores per cluster
-gpgpu_n_cluster_ejection_buffer_size                    8 # number of packets in ejection buffer
-gpgpu_n_ldst_response_buffer_size                    2 # number of response packets in ld/st unit ejection buffer
-gpgpu_shmem_size                   16384 # Size of shared memory per shader core (default 16kB)
-gpgpu_shmem_size                   49152 # Size of shared memory per shader core (default 16kB)
-gpgpu_shmem_size_PrefL1                16384 # Size of shared memory per shader core (default 16kB)
-gpgpu_shmem_size_PrefShared                16384 # Size of shared memory per shader core (default 16kB)
-gpgpu_shmem_num_banks                   32 # Number of banks in the shared memory in each shader core (default 16)
-gpgpu_shmem_limited_broadcast                    0 # Limit shared memory to do one broadcast per cycle (default on)
-gpgpu_shmem_warp_parts                    1 # Number of portions a warp is divided into for shared memory bank conflict check 
-gpgpu_warpdistro_shader                   -1 # Specify which shader core to collect the warp size distribution from
-gpgpu_warp_issue_shader                    0 # Specify which shader core to collect the warp issue distribution from
-gpgpu_local_mem_map                    1 # Mapping from local memory space address to simulated GPU physical address space (default = enabled)
-gpgpu_num_reg_banks                   16 # Number of register banks (default = 8)
-gpgpu_reg_bank_use_warp_id                    0 # Use warp ID in mapping registers to banks (default = off)
-gpgpu_operand_collector_num_units_sp                    6 # number of collector units (default = 4)
-gpgpu_operand_collector_num_units_sfu                    8 # number of collector units (default = 4)
-gpgpu_operand_collector_num_units_mem                    2 # number of collector units (default = 2)
-gpgpu_operand_collector_num_units_gen                    0 # number of collector units (default = 0)
-gpgpu_operand_collector_num_in_ports_sp                    2 # number of collector unit in ports (default = 1)
-gpgpu_operand_collector_num_in_ports_sfu                    1 # number of collector unit in ports (default = 1)
-gpgpu_operand_collector_num_in_ports_mem                    1 # number of collector unit in ports (default = 1)
-gpgpu_operand_collector_num_in_ports_gen                    0 # number of collector unit in ports (default = 0)
-gpgpu_operand_collector_num_out_ports_sp                    2 # number of collector unit in ports (default = 1)
-gpgpu_operand_collector_num_out_ports_sfu                    1 # number of collector unit in ports (default = 1)
-gpgpu_operand_collector_num_out_ports_mem                    1 # number of collector unit in ports (default = 1)
-gpgpu_operand_collector_num_out_ports_gen                    0 # number of collector unit in ports (default = 0)
-gpgpu_coalesce_arch                   13 # Coalescing arch (default = 13, anything else is off for now)
-gpgpu_num_sched_per_core                    2 # Number of warp schedulers per core
-gpgpu_max_insn_issue_per_warp                    1 # Max number of instructions that can be issued per warp in one cycle by scheduler
-gpgpu_simt_core_sim_order                    1 # Select the simulation order of cores in a cluster (0=Fix, 1=Round-Robin)
-gpgpu_pipeline_widths        2,1,1,2,1,1,2 # Pipeline widths ID_OC_SP,ID_OC_SFU,ID_OC_MEM,OC_EX_SP,OC_EX_SFU,OC_EX_MEM,EX_WB
-gpgpu_num_sp_units                     2 # Number of SP units (default=1)
-gpgpu_num_sfu_units                    1 # Number of SF units (default=1)
-gpgpu_num_mem_units                    1 # Number if ldst units (default=1) WARNING: not hooked up to anything
-gpgpu_scheduler                      lrr # Scheduler configuration: < lrr | gto | two_level_active > If two_level_active:<num_active_warps>:<inner_prioritization>:<outer_prioritization>For complete list of prioritization values see shader.h enum scheduler_prioritization_typeDefault: gto
-gpgpu_dram_scheduler                    1 # 0 = fifo, 1 = FR-FCFS (defaul)
-gpgpu_dram_partition_queues              8:8:8:8 # i2$:$2d:d2$:$2i
-l2_ideal                               0 # Use a ideal L2 cache that always hit
-gpgpu_cache:dl2     64:128:8,L:B:m:W:L,A:32:4,4:0,32 # unified banked L2 data cache config  {<nsets>:<bsize>:<assoc>,<rep>:<wr>:<alloc>:<wr_alloc>,<mshr>:<N>:<merge>,<mq>}
-gpgpu_cache:dl2_texture_only                    0 # L2 cache used for texture only
-gpgpu_n_mem                            6 # number of memory modules (e.g. memory controllers) in gpu
-gpgpu_n_sub_partition_per_mchannel                    2 # number of memory subpartition in each memory module
-gpgpu_n_mem_per_ctrlr                    2 # number of memory chips per memory controller
-gpgpu_memlatency_stat                   14 # track and display latency statistics 0x2 enables MC, 0x4 enables queue logs
-gpgpu_frfcfs_dram_sched_queue_size                   16 # 0 = unlimited (default); # entries per chip
-gpgpu_dram_return_queue_size                  116 # 0 = unlimited (default); # entries per chip
-gpgpu_dram_buswidth                    4 # default = 4 bytes (8 bytes per cycle at DDR)
-gpgpu_dram_burst_length                    8 # Burst length of each DRAM request (default = 4 data bus cycle)
-dram_data_command_freq_ratio                    4 # Frequency ratio between DRAM data bus and command bus (default = 2 times, i.e. DDR)
-gpgpu_dram_timing_opt nbk=16:CCD=2:RRD=6:RCD=12:RAS=28:RP=12:RC=40: CL=12:WL=4:CDLR=5:WR=12:nbkgrp=4:CCDL=3:RTPL=2 # DRAM timing parameters = {nbk:tCCD:tRRD:tRCD:tRAS:tRP:tRC:CL:WL:tCDLR:tWR:nbkgrp:tCCDL:tRTPL}
-rop_latency                          120 # ROP queue latency (default 85)
-dram_latency                         100 # DRAM latency (default 30)
-gpgpu_mem_addr_mapping dramid@8;00000000.00000000.00000000.00000000.0000RRRR.RRRRRRRR.BBBCCCCB.CCSSSSSS # mapping memory address to dram model {dramid@<start bit>;<memory address map>}
-gpgpu_mem_addr_test                    0 # run sweep test to check address mapping for aliased address
-gpgpu_mem_address_mask                    1 # 0 = old addressing mask, 1 = new addressing mask, 2 = new add. mask + flipped bank sel and chip sel bits
-gpuwattch_xml_file  gpuwattch_gtx480.xml # GPUWattch XML file
-power_simulation_enabled                    0 # Turn on power simulator (1=On, 0=Off)
-power_per_cycle_dump                    0 # Dump detailed power output each cycle
-power_trace_enabled                    0 # produce a file for the power trace (1=On, 0=Off)
-power_trace_zlevel                     6 # Compression level of the power trace output log (0=no comp, 9=highest)
-steady_power_levels_enabled                    0 # produce a file for the steady power levels (1=On, 0=Off)
-steady_state_definition                  8:4 # allowed deviation:number of samples
-gpgpu_max_cycle                        0 # terminates gpu simulation early (0 = no limit)
-gpgpu_max_insn                         0 # terminates gpu simulation early (0 = no limit)
-gpgpu_max_cta                          0 # terminates gpu simulation early (0 = no limit)
-gpgpu_runtime_stat             500000000 # display runtime statistics such as dram utilization {<freq>:<flag>}
-liveness_message_freq                    1 # Minimum number of seconds between simulation liveness messages (0 = always print)
-gpgpu_flush_l1_cache                    0 # Flush L1 cache at the end of each kernel call
-gpgpu_flush_l2_cache                    0 # Flush L2 cache at the end of each kernel call
-gpgpu_deadlock_detect                    1 # Stop the simulation at deadlock (1=on (default), 0=off)
-gpgpu_ptx_instruction_classification                    0 # if enabled will classify ptx instruction types per kernel (Max 255 kernels now)
-gpgpu_ptx_sim_mode                     0 # Select between Performance (default) or Functional simulation (1)
-gpgpu_clock_domains 730.0:730.0:730.0:950.0 # Clock Domain Frequencies in MhZ {<Core Clock>:<ICNT Clock>:<L2 Clock>:<DRAM Clock>}
-gpgpu_max_concurrent_kernel                    8 # maximum kernels that can run concurrently on GPU
-gpgpu_cflog_interval                    0 # Interval between each snapshot in control flow logger
-visualizer_enabled                     0 # Turn on visualizer output (1=On, 0=Off)
-visualizer_outputfile                 NULL # Specifies the output log file for visualizer
-visualizer_zlevel                      6 # Compression level of the visualizer output log (0=no comp, 9=highest)
-trace_enabled                          0 # Turn on traces
-trace_components                    none # comma seperated list of traces to enable. Complete list found in trace_streams.tup. Default none
-trace_sampling_core                    0 # The core which is printed using CORE_DPRINTF. Default 0
-trace_sampling_memory_partition                   -1 # The memory partition which is printed using MEMPART_DPRINTF. Default -1 (i.e. all)
-enable_ptx_file_line_stats                    0 # Turn on PTX source line statistic profiling. (1 = On)
-ptx_line_stats_filename gpgpu_inst_stats.txt # Output file for PTX source line statistics.
-save_embedded_ptx                      0 # saves ptx files embedded in binary as <n>.ptx
-keep                                   0 # keep intermediate files created by GPGPU-Sim when interfacing with external programs
-gpgpu_ptx_save_converted_ptxplus                    0 # Saved converted ptxplus to a file
-ptx_opcode_latency_int         4,13,4,5,145 # Opcode latencies for integers <ADD,MAX,MUL,MAD,DIV>Default 1,1,19,25,145
-ptx_opcode_latency_fp          4,13,4,5,39 # Opcode latencies for single precision floating points <ADD,MAX,MUL,MAD,DIV>Default 1,1,1,1,30
-ptx_opcode_latency_dp         8,19,8,8,330 # Opcode latencies for double precision floating points <ADD,MAX,MUL,MAD,DIV>Default 8,8,8,8,335
-ptx_opcode_initiation_int            1,2,2,1,8 # Opcode initiation intervals for integers <ADD,MAX,MUL,MAD,DIV>Default 1,1,4,4,32
-ptx_opcode_initiation_fp            1,2,1,1,4 # Opcode initiation intervals for single precision floating points <ADD,MAX,MUL,MAD,DIV>Default 1,1,1,1,5
-ptx_opcode_initiation_dp         8,16,8,8,130 # Opcode initiation intervals for double precision floating points <ADD,MAX,MUL,MAD,DIV>Default 8,8,8,8,130
DRAM Timing Options:
nbk                                    16 # number of banks
CCD                                     2 # column to column delay
RRD                                     6 # minimal delay between activation of rows in different banks
RCD                                    12 # row to column delay
RAS                                    28 # time needed to activate row
RP                                     12 # time needed to precharge (deactivate) row
RC                                     40 # row cycle time
CDLR                                    5 # switching from write to read (changes tWTR)
WR                                     12 # last data-in to row precharge
CL                                     12 # CAS latency
WL                                      4 # Write latency
nbkgrp                                  4 # number of bank groups
CCDL                                    3 # column to column delay between accesses to different bank groups
RTPL                                    2 # read to precharge delay between accesses to different bank groups
Total number of memory sub partition = 12
addr_dec_mask[CHIP]  = 0000000000000000 	high:64 low:0
addr_dec_mask[BK]    = 000000000000e100 	high:16 low:8
addr_dec_mask[ROW]   = 000000000fff0000 	high:28 low:16
addr_dec_mask[COL]   = 0000000000001eff 	high:13 low:0
addr_dec_mask[BURST] = 000000000000003f 	high:6 low:0
sub_partition_id_mask = 0000000000000100
GPGPU-Sim uArch: clock freqs: 730000000.000000:730000000.000000:730000000.000000:950000000.000000
GPGPU-Sim uArch: clock periods: 0.00000000136986301370:0.00000000136986301370:0.00000000136986301370:0.00000000105263157895
*** Initializing Memory Statistics ***
GPGPU-Sim uArch: interconnect node map (shaderID+MemID to icntID)
GPGPU-Sim uArch: Memory nodes ID start from index: 15
GPGPU-Sim uArch:    0   1   2   3   4
GPGPU-Sim uArch:    5   6   7   8   9
GPGPU-Sim uArch:   10  11  12  13  14
GPGPU-Sim uArch:   15  16  17  18  19
GPGPU-Sim uArch:   20  21  22  23  24
GPGPU-Sim uArch:   25  26
GPGPU-Sim uArch: interconnect node reverse map (icntID to shaderID+MemID)
GPGPU-Sim uArch: Memory nodes start from ID: 15
GPGPU-Sim uArch:    0   1   2   3   4
GPGPU-Sim uArch:    5   6   7   8   9
GPGPU-Sim uArch:   10  11  12  13  14
GPGPU-Sim uArch:   15  16  17  18  19
GPGPU-Sim uArch:   20  21  22  23  24
GPGPU-Sim uArch:   25  26
999794123320ff6ae247ddad3b658cb7  /home/z/Workspace/model_gpu_cache/build/3dconv_sim
GPGPU-Sim uArch: performance model initialization complete.
GPGPU-Sim PTX: __cudaRegisterFatBinary, fat_cubin_handle = 1, filename=3DConvolution.cu
self exe links to: /home/z/Workspace/model_gpu_cache/build/3dconv_sim
Running md5sum using "md5sum /home/z/Workspace/model_gpu_cache/build/3dconv_sim "
Running cuobjdump using "$CUDA_INSTALL_PATH/bin/cuobjdump -ptx -elf -sass /home/z/Workspace/model_gpu_cache/build/3dconv_sim > _cuobjdump_complete_output_dBYoCE"
Parsing file _cuobjdump_complete_output_dBYoCE
######### cuobjdump parser ########
## Adding new section ELF
Adding arch: sm_20
Adding identifier: 3DConvolution.cu
## Adding new section PTX
Adding ptx filename: _cuobjdump_1.ptx
Adding arch: sm_20
Adding identifier: 3DConvolution.cu
Done parsing!!!
GPGPU-Sim PTX: __cudaRegisterFunction _Z20convolution3D_kernelPfS_i : hostFun 0x0x401890, fat_cubin_handle = 1
GPGPU-Sim PTX: instruction assembly for function '_Z20convolution3D_kernelPfS_i'...   done.
GPGPU-Sim PTX: finding reconvergence points for '_Z20convolution3D_kernelPfS_i'...
GPGPU-Sim PTX: Finding dominators for '_Z20convolution3D_kernelPfS_i'...
GPGPU-Sim PTX: Finding immediate dominators for '_Z20convolution3D_kernelPfS_i'...
GPGPU-Sim PTX: Finding postdominators for '_Z20convolution3D_kernelPfS_i'...
GPGPU-Sim PTX: Finding immediate postdominators for '_Z20convolution3D_kernelPfS_i'...
GPGPU-Sim PTX: pre-decoding instructions for '_Z20convolution3D_kernelPfS_i'...
GPGPU-Sim PTX: reconvergence points for _Z20convolution3D_kernelPfS_i...
GPGPU-Sim PTX:  1 (potential) branch divergence @  PC=0x018 (_1.ptx:65) @%p1 bra $Lt_0_4866;
GPGPU-Sim PTX:    immediate post dominator      @  PC=0x298 (_1.ptx:149) exit;
GPGPU-Sim PTX:  2 (potential) branch divergence @  PC=0x058 (_1.ptx:73) @%p2 bra $Lt_0_4866;
GPGPU-Sim PTX:    immediate post dominator      @  PC=0x298 (_1.ptx:149) exit;
GPGPU-Sim PTX:  3 (potential) branch divergence @  PC=0x098 (_1.ptx:81) @%p3 bra $Lt_0_4866;
GPGPU-Sim PTX:    immediate post dominator      @  PC=0x298 (_1.ptx:149) exit;
GPGPU-Sim PTX:  4 (potential) branch divergence @  PC=0x0b0 (_1.ptx:84) @%p4 bra $Lt_0_4866;
GPGPU-Sim PTX:    immediate post dominator      @  PC=0x298 (_1.ptx:149) exit;
GPGPU-Sim PTX:  5 (potential) branch divergence @  PC=0x0c8 (_1.ptx:87) @%p5 bra $Lt_0_4866;
GPGPU-Sim PTX:    immediate post dominator      @  PC=0x298 (_1.ptx:149) exit;
GPGPU-Sim PTX:  6 (potential) branch divergence @  PC=0x0e0 (_1.ptx:90) @%p6 bra $Lt_0_4866;
GPGPU-Sim PTX:    immediate post dominator      @  PC=0x298 (_1.ptx:149) exit;
GPGPU-Sim PTX: ... end of reconvergence points for _Z20convolution3D_kernelPfS_i
GPGPU-Sim PTX: ... done pre-decoding instructions for '_Z20convolution3D_kernelPfS_i'.
GPGPU-Sim PTX: finished parsing EMBEDDED .ptx file _1.ptx
Adding _cuobjdump_1.ptx with cubin handle 1
GPGPU-Sim PTX: extracting embedded .ptx to temporary file "_ptx_vZmkEc"
Running: cat _ptx_vZmkEc | sed 's/.version 1.5/.version 1.4/' | sed 's/, texmode_independent//' | sed 's/\(\.extern \.const\[1\] .b8 \w\+\)\[\]/\1\[1\]/' | sed 's/const\[.\]/const\[0\]/g' > _ptx2_N9QgGK
GPGPU-Sim PTX: generating ptxinfo using "$CUDA_INSTALL_PATH/bin/ptxas --gpu-name=sm_20 -v _ptx2_N9QgGK --output-file  /dev/null 2> _ptx_vZmkEcinfo"
GPGPU-Sim PTX: Kernel '_Z20convolution3D_kernelPfS_i' : regs=16, lmem=0, smem=0, cmem=52
GPGPU-Sim PTX: removing ptxinfo using "rm -f _ptx_vZmkEc _ptx2_N9QgGK _ptx_vZmkEcinfo"
GPGPU-Sim PTX: loading globals with explicit initializers... 
GPGPU-Sim PTX: finished loading globals (0 bytes total).
GPGPU-Sim PTX: loading constants with explicit initializers...  done.

GPGPU-Sim PTX: cudaLaunch for 0x0x401890 (mode=performance simulation) on stream 0
GPGPU-Sim PTX: pushing kernel '_Z20convolution3D_kernelPfS_i' to stream 0, gridDim= (8,32,1) blockDim = (32,8,1) 
####  CUstream_st::push: Start pushing kernel: convolution3D_kernel  ####
kernel '_Z20convolution3D_kernelPfS_i' transfer to GPU hardware scheduler
GPGPU-Sim uArch: Shader 1 bind to kernel 1 '_Z20convolution3D_kernelPfS_i'
GPGPU-Sim uArch: CTA/core = 6, limited by: threads
GPGPU-Sim uArch: core:  1, cta: 0 initialized @(1,0)
GPGPU-Sim uArch: Shader 2 bind to kernel 1 '_Z20convolution3D_kernelPfS_i'
GPGPU-Sim uArch: core:  2, cta: 0 initialized @(1,0)
GPGPU-Sim uArch: Shader 3 bind to kernel 1 '_Z20convolution3D_kernelPfS_i'
GPGPU-Sim uArch: core:  3, cta: 0 initialized @(1,0)
GPGPU-Sim uArch: Shader 4 bind to kernel 1 '_Z20convolution3D_kernelPfS_i'
GPGPU-Sim uArch: core:  4, cta: 0 initialized @(1,0)
GPGPU-Sim uArch: Shader 5 bind to kernel 1 '_Z20convolution3D_kernelPfS_i'
GPGPU-Sim uArch: core:  5, cta: 0 initialized @(1,0)
GPGPU-Sim uArch: Shader 6 bind to kernel 1 '_Z20convolution3D_kernelPfS_i'
GPGPU-Sim uArch: core:  6, cta: 0 initialized @(1,0)
GPGPU-Sim uArch: Shader 7 bind to kernel 1 '_Z20convolution3D_kernelPfS_i'
GPGPU-Sim uArch: core:  7, cta: 0 initialized @(1,0)
GPGPU-Sim uArch: Shader 8 bind to kernel 1 '_Z20convolution3D_kernelPfS_i'
GPGPU-Sim uArch: core:  8, cta: 0 initialized @(1,0)
GPGPU-Sim uArch: Shader 9 bind to kernel 1 '_Z20convolution3D_kernelPfS_i'
GPGPU-Sim uArch: core:  9, cta: 0 initialized @(1,0)
GPGPU-Sim uArch: Shader 10 bind to kernel 1 '_Z20convolution3D_kernelPfS_i'
GPGPU-Sim uArch: core: 10, cta: 0 initialized @(1,0)
GPGPU-Sim uArch: Shader 11 bind to kernel 1 '_Z20convolution3D_kernelPfS_i'
GPGPU-Sim uArch: core: 11, cta: 0 initialized @(1,0)
GPGPU-Sim uArch: Shader 12 bind to kernel 1 '_Z20convolution3D_kernelPfS_i'
GPGPU-Sim uArch: core: 12, cta: 0 initialized @(1,0)
GPGPU-Sim uArch: Shader 13 bind to kernel 1 '_Z20convolution3D_kernelPfS_i'
GPGPU-Sim uArch: core: 13, cta: 0 initialized @(1,0)
GPGPU-Sim uArch: Shader 14 bind to kernel 1 '_Z20convolution3D_kernelPfS_i'
GPGPU-Sim uArch: core: 14, cta: 0 initialized @(1,0)
GPGPU-Sim uArch: Shader 0 bind to kernel 1 '_Z20convolution3D_kernelPfS_i'
GPGPU-Sim uArch: core:  0, cta: 0 initialized @(1,0)
GPGPU-Sim uArch: core:  1, cta: 1 initialized @(2,0)
GPGPU-Sim uArch: core:  2, cta: 1 initialized @(2,0)
GPGPU-Sim uArch: core:  3, cta: 1 initialized @(2,0)
GPGPU-Sim uArch: core:  4, cta: 1 initialized @(2,0)
GPGPU-Sim uArch: core:  5, cta: 1 initialized @(2,0)
GPGPU-Sim uArch: core:  6, cta: 1 initialized @(2,0)
GPGPU-Sim uArch: core:  7, cta: 1 initialized @(2,0)
GPGPU-Sim uArch: core:  8, cta: 1 initialized @(2,0)
GPGPU-Sim uArch: core:  9, cta: 1 initialized @(2,0)
GPGPU-Sim uArch: core: 10, cta: 1 initialized @(2,0)
GPGPU-Sim uArch: core: 11, cta: 1 initialized @(2,0)
GPGPU-Sim uArch: core: 12, cta: 1 initialized @(2,0)
GPGPU-Sim uArch: core: 13, cta: 1 initialized @(2,0)
GPGPU-Sim uArch: core: 14, cta: 1 initialized @(2,0)
GPGPU-Sim uArch: core:  0, cta: 1 initialized @(2,0)
GPGPU-Sim uArch: core:  1, cta: 2 initialized @(3,0)
GPGPU-Sim uArch: core:  2, cta: 2 initialized @(3,0)
GPGPU-Sim uArch: core:  3, cta: 2 initialized @(3,0)
GPGPU-Sim uArch: core:  4, cta: 2 initialized @(3,0)
GPGPU-Sim uArch: core:  5, cta: 2 initialized @(3,0)
GPGPU-Sim uArch: core:  6, cta: 2 initialized @(3,0)
GPGPU-Sim uArch: core:  7, cta: 2 initialized @(3,0)
GPGPU-Sim uArch: core:  8, cta: 2 initialized @(3,0)
GPGPU-Sim uArch: core:  9, cta: 2 initialized @(3,0)
GPGPU-Sim uArch: core: 10, cta: 2 initialized @(3,0)
GPGPU-Sim uArch: core: 11, cta: 2 initialized @(3,0)
GPGPU-Sim uArch: core: 12, cta: 2 initialized @(3,0)
GPGPU-Sim uArch: core: 13, cta: 2 initialized @(3,0)
GPGPU-Sim uArch: core: 14, cta: 2 initialized @(3,0)
GPGPU-Sim uArch: core:  0, cta: 2 initialized @(3,0)
GPGPU-Sim uArch: core:  1, cta: 3 initialized @(4,0)
GPGPU-Sim uArch: core:  2, cta: 3 initialized @(4,0)
GPGPU-Sim uArch: core:  3, cta: 3 initialized @(4,0)
GPGPU-Sim uArch: core:  4, cta: 3 initialized @(4,0)
GPGPU-Sim uArch: core:  5, cta: 3 initialized @(4,0)
GPGPU-Sim uArch: core:  6, cta: 3 initialized @(4,0)
GPGPU-Sim uArch: core:  7, cta: 3 initialized @(4,0)
GPGPU-Sim uArch: core:  8, cta: 3 initialized @(4,0)
GPGPU-Sim uArch: core:  9, cta: 3 initialized @(4,0)
GPGPU-Sim uArch: core: 10, cta: 3 initialized @(4,0)
GPGPU-Sim uArch: core: 11, cta: 3 initialized @(4,0)
GPGPU-Sim uArch: core: 12, cta: 3 initialized @(4,0)
GPGPU-Sim uArch: core: 13, cta: 3 initialized @(4,0)
GPGPU-Sim uArch: core: 14, cta: 3 initialized @(4,0)
GPGPU-Sim uArch: core:  0, cta: 3 initialized @(4,0)
GPGPU-Sim uArch: core:  1, cta: 4 initialized @(5,0)
GPGPU-Sim uArch: core:  2, cta: 4 initialized @(5,0)
GPGPU-Sim uArch: core:  3, cta: 4 initialized @(5,0)
GPGPU-Sim uArch: core:  4, cta: 4 initialized @(5,0)
GPGPU-Sim uArch: core:  5, cta: 4 initialized @(5,0)
GPGPU-Sim uArch: core:  6, cta: 4 initialized @(5,0)
GPGPU-Sim uArch: core:  7, cta: 4 initialized @(5,0)
GPGPU-Sim uArch: core:  8, cta: 4 initialized @(5,0)
GPGPU-Sim uArch: core:  9, cta: 4 initialized @(5,0)
GPGPU-Sim uArch: core: 10, cta: 4 initialized @(5,0)
GPGPU-Sim uArch: core: 11, cta: 4 initialized @(5,0)
GPGPU-Sim uArch: core: 12, cta: 4 initialized @(5,0)
GPGPU-Sim uArch: core: 13, cta: 4 initialized @(5,0)
GPGPU-Sim uArch: core: 14, cta: 4 initialized @(5,0)
GPGPU-Sim uArch: core:  0, cta: 4 initialized @(5,0)
GPGPU-Sim uArch: core:  1, cta: 5 initialized @(6,0)
GPGPU-Sim uArch: core:  2, cta: 5 initialized @(6,0)
GPGPU-Sim uArch: core:  3, cta: 5 initialized @(6,0)
GPGPU-Sim uArch: core:  4, cta: 5 initialized @(6,0)
GPGPU-Sim uArch: core:  5, cta: 5 initialized @(6,0)
GPGPU-Sim uArch: core:  6, cta: 5 initialized @(6,0)
GPGPU-Sim uArch: core:  7, cta: 5 initialized @(6,0)
GPGPU-Sim uArch: core:  8, cta: 5 initialized @(6,0)
GPGPU-Sim uArch: core:  9, cta: 5 initialized @(6,0)
GPGPU-Sim uArch: core: 10, cta: 5 initialized @(6,0)
GPGPU-Sim uArch: core: 11, cta: 5 initialized @(6,0)
GPGPU-Sim uArch: core: 12, cta: 5 initialized @(6,0)
GPGPU-Sim uArch: core: 13, cta: 5 initialized @(6,0)
GPGPU-Sim uArch: core: 14, cta: 5 initialized @(6,0)
GPGPU-Sim uArch: core:  0, cta: 5 initialized @(6,0)
GPGPU-Sim uArch: Shader 4 finished CTA #3 (9428,0), 5 CTAs running
GPGPU-Sim uArch: core:  4, cta: 3 initialized @(9429,0)
GPGPU-Sim uArch: Shader 4 finished CTA #2 (9767,0), 5 CTAs running
GPGPU-Sim uArch: core:  4, cta: 2 initialized @(9768,0)
GPGPU-Sim uArch: Shader 1 finished CTA #0 (9845,0), 5 CTAs running
GPGPU-Sim uArch: core:  1, cta: 0 initialized @(9846,0)
GPGPU-Sim uArch: Shader 3 finished CTA #2 (9853,0), 5 CTAs running
GPGPU-Sim uArch: core:  3, cta: 2 initialized @(9854,0)
GPGPU-Sim uArch: Shader 3 finished CTA #1 (9862,0), 5 CTAs running
GPGPU-Sim uArch: core:  3, cta: 1 initialized @(9863,0)
GPGPU-Sim uArch: Shader 11 finished CTA #2 (9896,0), 5 CTAs running
GPGPU-Sim uArch: core: 11, cta: 2 initialized @(9897,0)
GPGPU-Sim uArch: Shader 6 finished CTA #5 (10047,0), 5 CTAs running
GPGPU-Sim uArch: core:  6, cta: 5 initialized @(10048,0)
GPGPU-Sim uArch: Shader 4 finished CTA #5 (10057,0), 5 CTAs running
GPGPU-Sim uArch: core:  4, cta: 5 initialized @(10058,0)
GPGPU-Sim uArch: Shader 5 finished CTA #4 (10085,0), 5 CTAs running
GPGPU-Sim uArch: core:  5, cta: 4 initialized @(10086,0)
GPGPU-Sim uArch: Shader 3 finished CTA #5 (10186,0), 5 CTAs running
GPGPU-Sim uArch: core:  3, cta: 5 initialized @(10187,0)
GPGPU-Sim uArch: Shader 12 finished CTA #3 (10258,0), 5 CTAs running
GPGPU-Sim uArch: core: 12, cta: 3 initialized @(10259,0)
GPGPU-Sim uArch: Shader 0 finished CTA #5 (10272,0), 5 CTAs running
GPGPU-Sim uArch: Shader 5 finished CTA #1 (10272,0), 5 CTAs running
GPGPU-Sim uArch: core:  0, cta: 5 initialized @(10273,0)
GPGPU-Sim uArch: core:  5, cta: 1 initialized @(10273,0)
GPGPU-Sim uArch: Shader 4 finished CTA #4 (10273,0), 5 CTAs running
GPGPU-Sim uArch: core:  4, cta: 4 initialized @(10274,0)
GPGPU-Sim uArch: Shader 4 finished CTA #1 (10351,0), 5 CTAs running
GPGPU-Sim uArch: core:  4, cta: 1 initialized @(10352,0)
GPGPU-Sim uArch: Shader 10 finished CTA #1 (10356,0), 5 CTAs running
GPGPU-Sim uArch: core: 10, cta: 1 initialized @(10357,0)
GPGPU-Sim uArch: Shader 1 finished CTA #4 (10380,0), 5 CTAs running
GPGPU-Sim uArch: core:  1, cta: 4 initialized @(10381,0)
GPGPU-Sim uArch: Shader 3 finished CTA #4 (10467,0), 5 CTAs running
GPGPU-Sim uArch: core:  3, cta: 4 initialized @(10468,0)
GPGPU-Sim uArch: Shader 4 finished CTA #0 (10479,0), 5 CTAs running
GPGPU-Sim uArch: core:  4, cta: 0 initialized @(10480,0)
GPGPU-Sim uArch: Shader 3 finished CTA #0 (10505,0), 5 CTAs running
GPGPU-Sim uArch: core:  3, cta: 0 initialized @(10506,0)
GPGPU-Sim uArch: Shader 6 finished CTA #0 (10612,0), 5 CTAs running
GPGPU-Sim uArch: core:  6, cta: 0 initialized @(10613,0)
GPGPU-Sim uArch: Shader 10 finished CTA #2 (10646,0), 5 CTAs running
GPGPU-Sim uArch: core: 10, cta: 2 initialized @(10647,0)
GPGPU-Sim uArch: Shader 10 finished CTA #3 (10737,0), 5 CTAs running
GPGPU-Sim uArch: core: 10, cta: 3 initialized @(10738,0)
GPGPU-Sim uArch: Shader 7 finished CTA #1 (10763,0), 5 CTAs running
GPGPU-Sim uArch: core:  7, cta: 1 initialized @(10764,0)
GPGPU-Sim uArch: Shader 5 finished CTA #2 (10766,0), 5 CTAs running
GPGPU-Sim uArch: core:  5, cta: 2 initialized @(10767,0)
GPGPU-Sim uArch: Shader 11 finished CTA #4 (10785,0), 5 CTAs running
GPGPU-Sim uArch: core: 11, cta: 4 initialized @(10786,0)
GPGPU-Sim uArch: Shader 9 finished CTA #0 (10799,0), 5 CTAs running
GPGPU-Sim uArch: core:  9, cta: 0 initialized @(10800,0)
GPGPU-Sim uArch: Shader 8 finished CTA #0 (10821,0), 5 CTAs running
GPGPU-Sim uArch: core:  8, cta: 0 initialized @(10822,0)
GPGPU-Sim uArch: Shader 11 finished CTA #3 (10823,0), 5 CTAs running
GPGPU-Sim uArch: core: 11, cta: 3 initialized @(10824,0)
GPGPU-Sim uArch: Shader 5 finished CTA #5 (10835,0), 5 CTAs running
GPGPU-Sim uArch: core:  5, cta: 5 initialized @(10836,0)
GPGPU-Sim uArch: Shader 5 finished CTA #3 (10844,0), 5 CTAs running
GPGPU-Sim uArch: core:  5, cta: 3 initialized @(10845,0)
GPGPU-Sim uArch: Shader 7 finished CTA #0 (10871,0), 5 CTAs running
GPGPU-Sim uArch: core:  7, cta: 0 initialized @(10872,0)
GPGPU-Sim uArch: Shader 6 finished CTA #1 (10912,0), 5 CTAs running
GPGPU-Sim uArch: core:  6, cta: 1 initialized @(10913,0)
GPGPU-Sim uArch: Shader 1 finished CTA #1 (10914,0), 5 CTAs running
GPGPU-Sim uArch: core:  1, cta: 1 initialized @(10915,0)
GPGPU-Sim uArch: Shader 3 finished CTA #3 (10929,0), 5 CTAs running
GPGPU-Sim uArch: core:  3, cta: 3 initialized @(10930,0)
GPGPU-Sim uArch: Shader 11 finished CTA #5 (10989,0), 5 CTAs running
GPGPU-Sim uArch: core: 11, cta: 5 initialized @(10990,0)
GPGPU-Sim uArch: Shader 8 finished CTA #3 (11045,0), 5 CTAs running
GPGPU-Sim uArch: core:  8, cta: 3 initialized @(11046,0)
GPGPU-Sim uArch: Shader 5 finished CTA #0 (11046,0), 5 CTAs running
GPGPU-Sim uArch: core:  5, cta: 0 initialized @(11047,0)
GPGPU-Sim uArch: Shader 13 finished CTA #0 (11061,0), 5 CTAs running
GPGPU-Sim uArch: core: 13, cta: 0 initialized @(11062,0)
GPGPU-Sim uArch: Shader 11 finished CTA #1 (11071,0), 5 CTAs running
GPGPU-Sim uArch: core: 11, cta: 1 initialized @(11072,0)
GPGPU-Sim uArch: Shader 1 finished CTA #5 (11086,0), 5 CTAs running
GPGPU-Sim uArch: core:  1, cta: 5 initialized @(11087,0)
GPGPU-Sim uArch: Shader 6 finished CTA #4 (11147,0), 5 CTAs running
GPGPU-Sim uArch: core:  6, cta: 4 initialized @(11148,0)
GPGPU-Sim uArch: Shader 8 finished CTA #1 (11148,0), 5 CTAs running
GPGPU-Sim uArch: core:  8, cta: 1 initialized @(11149,0)
GPGPU-Sim uArch: Shader 7 finished CTA #2 (11156,0), 5 CTAs running
GPGPU-Sim uArch: core:  7, cta: 2 initialized @(11157,0)
GPGPU-Sim uArch: Shader 10 finished CTA #4 (11192,0), 5 CTAs running
GPGPU-Sim uArch: core: 10, cta: 4 initialized @(11193,0)
GPGPU-Sim uArch: Shader 11 finished CTA #0 (11199,0), 5 CTAs running
GPGPU-Sim uArch: core: 11, cta: 0 initialized @(11200,0)
GPGPU-Sim uArch: Shader 10 finished CTA #0 (11226,0), 5 CTAs running
GPGPU-Sim uArch: core: 10, cta: 0 initialized @(11227,0)
GPGPU-Sim uArch: Shader 13 finished CTA #4 (11228,0), 5 CTAs running
GPGPU-Sim uArch: core: 13, cta: 4 initialized @(11229,0)
GPGPU-Sim uArch: Shader 9 finished CTA #3 (11248,0), 5 CTAs running
GPGPU-Sim uArch: core:  9, cta: 3 initialized @(11249,0)
GPGPU-Sim uArch: Shader 6 finished CTA #2 (11270,0), 5 CTAs running
GPGPU-Sim uArch: core:  6, cta: 2 initialized @(11271,0)
GPGPU-Sim uArch: Shader 14 finished CTA #5 (11280,0), 5 CTAs running
GPGPU-Sim uArch: core: 14, cta: 5 initialized @(11281,0)
GPGPU-Sim uArch: Shader 9 finished CTA #1 (11284,0), 5 CTAs running
GPGPU-Sim uArch: core:  9, cta: 1 initialized @(11285,0)
GPGPU-Sim uArch: Shader 14 finished CTA #1 (11289,0), 5 CTAs running
GPGPU-Sim uArch: core: 14, cta: 1 initialized @(11290,0)
GPGPU-Sim uArch: Shader 10 finished CTA #5 (11290,0), 5 CTAs running
GPGPU-Sim uArch: core: 10, cta: 5 initialized @(11291,0)
GPGPU-Sim uArch: Shader 9 finished CTA #4 (11292,0), 5 CTAs running
GPGPU-Sim uArch: core:  9, cta: 4 initialized @(11293,0)
GPGPU-Sim uArch: Shader 0 finished CTA #0 (11336,0), 5 CTAs running
GPGPU-Sim uArch: core:  0, cta: 0 initialized @(11337,0)
GPGPU-Sim uArch: Shader 9 finished CTA #2 (11343,0), 5 CTAs running
GPGPU-Sim uArch: core:  9, cta: 2 initialized @(11344,0)
GPGPU-Sim uArch: Shader 1 finished CTA #3 (11359,0), 5 CTAs running
GPGPU-Sim uArch: core:  1, cta: 3 initialized @(11360,0)
GPGPU-Sim uArch: Shader 9 finished CTA #5 (11391,0), 5 CTAs running
GPGPU-Sim uArch: core:  9, cta: 5 initialized @(11392,0)
GPGPU-Sim uArch: Shader 12 finished CTA #4 (11422,0), 5 CTAs running
GPGPU-Sim uArch: core: 12, cta: 4 initialized @(11423,0)
GPGPU-Sim uArch: Shader 12 finished CTA #5 (11431,0), 5 CTAs running
GPGPU-Sim uArch: core: 12, cta: 5 initialized @(11432,0)
GPGPU-Sim uArch: Shader 0 finished CTA #1 (11482,0), 5 CTAs running
GPGPU-Sim uArch: core:  0, cta: 1 initialized @(11483,0)
GPGPU-Sim uArch: Shader 6 finished CTA #3 (11506,0), 5 CTAs running
GPGPU-Sim uArch: core:  6, cta: 3 initialized @(11507,0)
GPGPU-Sim uArch: Shader 0 finished CTA #2 (11542,0), 5 CTAs running
GPGPU-Sim uArch: core:  0, cta: 2 initialized @(11543,0)
GPGPU-Sim uArch: Shader 2 finished CTA #1 (11612,0), 5 CTAs running
GPGPU-Sim uArch: core:  2, cta: 1 initialized @(11613,0)
GPGPU-Sim uArch: Shader 13 finished CTA #5 (11630,0), 5 CTAs running
GPGPU-Sim uArch: core: 13, cta: 5 initialized @(11631,0)
GPGPU-Sim uArch: Shader 12 finished CTA #2 (11676,0), 5 CTAs running
GPGPU-Sim uArch: core: 12, cta: 2 initialized @(11677,0)
GPGPU-Sim uArch: Shader 2 finished CTA #4 (11718,0), 5 CTAs running
GPGPU-Sim uArch: core:  2, cta: 4 initialized @(11719,0)
GPGPU-Sim uArch: Shader 14 finished CTA #4 (11731,0), 5 CTAs running
GPGPU-Sim uArch: core: 14, cta: 4 initialized @(11732,0)
GPGPU-Sim uArch: Shader 8 finished CTA #2 (11749,0), 5 CTAs running
GPGPU-Sim uArch: core:  8, cta: 2 initialized @(11750,0)
GPGPU-Sim uArch: Shader 14 finished CTA #0 (11767,0), 5 CTAs running
GPGPU-Sim uArch: core: 14, cta: 0 initialized @(11768,0)
GPGPU-Sim uArch: Shader 1 finished CTA #2 (11768,0), 5 CTAs running
GPGPU-Sim uArch: core:  1, cta: 2 initialized @(11769,0)
GPGPU-Sim uArch: Shader 2 finished CTA #2 (11812,0), 5 CTAs running
GPGPU-Sim uArch: core:  2, cta: 2 initialized @(11813,0)
GPGPU-Sim uArch: Shader 0 finished CTA #3 (11828,0), 5 CTAs running
GPGPU-Sim uArch: core:  0, cta: 3 initialized @(11829,0)
GPGPU-Sim uArch: Shader 14 finished CTA #2 (11901,0), 5 CTAs running
GPGPU-Sim uArch: core: 14, cta: 2 initialized @(11902,0)
GPGPU-Sim uArch: Shader 8 finished CTA #4 (11907,0), 5 CTAs running
GPGPU-Sim uArch: core:  8, cta: 4 initialized @(11908,0)
GPGPU-Sim uArch: Shader 2 finished CTA #5 (11919,0), 5 CTAs running
GPGPU-Sim uArch: core:  2, cta: 5 initialized @(11920,0)
GPGPU-Sim uArch: Shader 12 finished CTA #0 (11926,0), 5 CTAs running
GPGPU-Sim uArch: core: 12, cta: 0 initialized @(11927,0)
GPGPU-Sim uArch: Shader 2 finished CTA #3 (11927,0), 5 CTAs running
GPGPU-Sim uArch: core:  2, cta: 3 initialized @(11928,0)
GPGPU-Sim uArch: Shader 14 finished CTA #3 (11955,0), 5 CTAs running
GPGPU-Sim uArch: core: 14, cta: 3 initialized @(11956,0)
GPGPU-Sim uArch: Shader 0 finished CTA #4 (12011,0), 5 CTAs running
GPGPU-Sim uArch: core:  0, cta: 4 initialized @(12012,0)
GPGPU-Sim uArch: Shader 7 finished CTA #3 (12087,0), 5 CTAs running
GPGPU-Sim uArch: core:  7, cta: 3 initialized @(12088,0)
GPGPU-Sim uArch: Shader 13 finished CTA #3 (12189,0), 5 CTAs running
GPGPU-Sim uArch: core: 13, cta: 3 initialized @(12190,0)
GPGPU-Sim uArch: Shader 13 finished CTA #1 (12283,0), 5 CTAs running
GPGPU-Sim uArch: core: 13, cta: 1 initialized @(12284,0)
GPGPU-Sim uArch: Shader 7 finished CTA #5 (12531,0), 5 CTAs running
GPGPU-Sim uArch: core:  7, cta: 5 initialized @(12532,0)
GPGPU-Sim uArch: Shader 2 finished CTA #0 (12789,0), 5 CTAs running
GPGPU-Sim uArch: core:  2, cta: 0 initialized @(12790,0)
GPGPU-Sim uArch: Shader 8 finished CTA #5 (12821,0), 5 CTAs running
GPGPU-Sim uArch: core:  8, cta: 5 initialized @(12822,0)
GPGPU-Sim uArch: Shader 12 finished CTA #1 (12905,0), 5 CTAs running
GPGPU-Sim uArch: core: 12, cta: 1 initialized @(12906,0)
GPGPU-Sim uArch: Shader 7 finished CTA #4 (13057,0), 5 CTAs running
GPGPU-Sim uArch: core:  7, cta: 4 initialized @(13058,0)
GPGPU-Sim uArch: Shader 4 finished CTA #1 (14843,0), 5 CTAs running
GPGPU-Sim uArch: core:  4, cta: 1 initialized @(14844,0)
GPGPU-Sim uArch: Shader 13 finished CTA #2 (14849,0), 5 CTAs running
GPGPU-Sim uArch: core: 13, cta: 2 initialized @(14850,0)
GPGPU-Sim uArch: Shader 4 finished CTA #3 (14989,0), 5 CTAs running
GPGPU-Sim uArch: core:  4, cta: 3 initialized @(14990,0)
GPGPU-Sim uArch: Shader 4 finished CTA #2 (15397,0), 5 CTAs running
GPGPU-Sim uArch: core:  4, cta: 2 initialized @(15398,0)
GPGPU-Sim uArch: Shader 4 finished CTA #4 (15410,0), 5 CTAs running
GPGPU-Sim uArch: core:  4, cta: 4 initialized @(15411,0)
GPGPU-Sim uArch: Shader 4 finished CTA #5 (15487,0), 5 CTAs running
GPGPU-Sim uArch: core:  4, cta: 5 initialized @(15488,0)
GPGPU-Sim uArch: Shader 5 finished CTA #1 (16733,0), 5 CTAs running
GPGPU-Sim uArch: core:  5, cta: 1 initialized @(16734,0)
GPGPU-Sim uArch: Shader 5 finished CTA #5 (16959,0), 5 CTAs running
GPGPU-Sim uArch: core:  5, cta: 5 initialized @(16960,0)
GPGPU-Sim uArch: Shader 10 finished CTA #1 (17489,0), 5 CTAs running
GPGPU-Sim uArch: core: 10, cta: 1 initialized @(17490,0)
GPGPU-Sim uArch: Shader 4 finished CTA #0 (17631,0), 5 CTAs running
GPGPU-Sim uArch: core:  4, cta: 0 initialized @(17632,0)
GPGPU-Sim uArch: Shader 3 finished CTA #1 (17649,0), 5 CTAs running
GPGPU-Sim uArch: core:  3, cta: 1 initialized @(17650,0)
GPGPU-Sim uArch: Shader 5 finished CTA #3 (17839,0), 5 CTAs running
GPGPU-Sim uArch: core:  5, cta: 3 initialized @(17840,0)
GPGPU-Sim uArch: Shader 5 finished CTA #0 (17899,0), 5 CTAs running
GPGPU-Sim uArch: core:  5, cta: 0 initialized @(17900,0)
GPGPU-Sim uArch: Shader 11 finished CTA #2 (17915,0), 5 CTAs running
GPGPU-Sim uArch: core: 11, cta: 2 initialized @(17916,0)
GPGPU-Sim uArch: Shader 5 finished CTA #4 (18058,0), 5 CTAs running
GPGPU-Sim uArch: core:  5, cta: 4 initialized @(18059,0)
GPGPU-Sim uArch: Shader 5 finished CTA #2 (18071,0), 5 CTAs running
GPGPU-Sim uArch: core:  5, cta: 2 initialized @(18072,0)
GPGPU-Sim uArch: Shader 3 finished CTA #5 (18073,0), 5 CTAs running
GPGPU-Sim uArch: core:  3, cta: 5 initialized @(18074,0)
GPGPU-Sim uArch: Shader 3 finished CTA #2 (18085,0), 5 CTAs running
GPGPU-Sim uArch: core:  3, cta: 2 initialized @(18086,0)
GPGPU-Sim uArch: Shader 8 finished CTA #0 (18227,0), 5 CTAs running
GPGPU-Sim uArch: core:  8, cta: 0 initialized @(18228,0)
GPGPU-Sim uArch: Shader 1 finished CTA #0 (18341,0), 5 CTAs running
GPGPU-Sim uArch: core:  1, cta: 0 initialized @(18342,0)
GPGPU-Sim uArch: Shader 12 finished CTA #3 (18533,0), 5 CTAs running
GPGPU-Sim uArch: core: 12, cta: 3 initialized @(18534,0)
GPGPU-Sim uArch: Shader 10 finished CTA #2 (18539,0), 5 CTAs running
GPGPU-Sim uArch: core: 10, cta: 2 initialized @(18540,0)
GPGPU-Sim uArch: Shader 10 finished CTA #3 (18726,0), 5 CTAs running
GPGPU-Sim uArch: core: 10, cta: 3 initialized @(18727,0)
GPGPU-Sim uArch: Shader 10 finished CTA #0 (18735,0), 5 CTAs running
GPGPU-Sim uArch: core: 10, cta: 0 initialized @(18736,0)
GPGPU-Sim uArch: Shader 0 finished CTA #5 (18798,0), 5 CTAs running
GPGPU-Sim uArch: core:  0, cta: 5 initialized @(18799,0)
GPGPU-Sim uArch: Shader 9 finished CTA #0 (18806,0), 5 CTAs running
GPGPU-Sim uArch: core:  9, cta: 0 initialized @(18807,0)
GPGPU-Sim uArch: Shader 9 finished CTA #4 (18932,0), 5 CTAs running
GPGPU-Sim uArch: core:  9, cta: 4 initialized @(18933,0)
GPGPU-Sim uArch: Shader 11 finished CTA #0 (18962,0), 5 CTAs running
GPGPU-Sim uArch: core: 11, cta: 0 initialized @(18963,0)
GPGPU-Sim uArch: Shader 11 finished CTA #4 (19083,0), 5 CTAs running
GPGPU-Sim uArch: core: 11, cta: 4 initialized @(19084,0)
GPGPU-Sim uArch: Shader 8 finished CTA #3 (19152,0), 5 CTAs running
GPGPU-Sim uArch: core:  8, cta: 3 initialized @(19153,0)
GPGPU-Sim uArch: Shader 0 finished CTA #1 (19176,0), 5 CTAs running
GPGPU-Sim uArch: core:  0, cta: 1 initialized @(19177,0)
GPGPU-Sim uArch: Shader 4 finished CTA #1 (19190,0), 5 CTAs running
GPGPU-Sim uArch: core:  4, cta: 1 initialized @(19191,0)
GPGPU-Sim uArch: Shader 11 finished CTA #3 (19218,0), 5 CTAs running
GPGPU-Sim uArch: core: 11, cta: 3 initialized @(19219,0)
GPGPU-Sim uArch: Shader 10 finished CTA #4 (19278,0), 5 CTAs running
GPGPU-Sim uArch: core: 10, cta: 4 initialized @(19279,0)
GPGPU-Sim uArch: Shader 11 finished CTA #5 (19586,0), 5 CTAs running
GPGPU-Sim uArch: core: 11, cta: 5 initialized @(19587,0)
GPGPU-Sim uArch: Shader 7 finished CTA #5 (19596,0), 5 CTAs running
GPGPU-Sim uArch: core:  7, cta: 5 initialized @(19597,0)
GPGPU-Sim uArch: Shader 3 finished CTA #0 (19607,0), 5 CTAs running
GPGPU-Sim uArch: core:  3, cta: 0 initialized @(19608,0)
GPGPU-Sim uArch: Shader 2 finished CTA #1 (19686,0), 5 CTAs running
GPGPU-Sim uArch: core:  2, cta: 1 initialized @(19687,0)
GPGPU-Sim uArch: Shader 3 finished CTA #3 (19690,0), 5 CTAs running
GPGPU-Sim uArch: core:  3, cta: 3 initialized @(19691,0)
GPGPU-Sim uArch: Shader 3 finished CTA #4 (19769,0), 5 CTAs running
GPGPU-Sim uArch: core:  3, cta: 4 initialized @(19770,0)
GPGPU-Sim uArch: Shader 8 finished CTA #5 (19774,0), 5 CTAs running
GPGPU-Sim uArch: core:  8, cta: 5 initialized @(19775,0)
GPGPU-Sim uArch: Shader 8 finished CTA #1 (19783,0), 5 CTAs running
GPGPU-Sim uArch: core:  8, cta: 1 initialized @(19784,0)
GPGPU-Sim uArch: Shader 7 finished CTA #1 (19879,0), 5 CTAs running
GPGPU-Sim uArch: core:  7, cta: 1 initialized @(19880,0)
GPGPU-Sim uArch: Shader 8 finished CTA #4 (19892,0), 5 CTAs running
GPGPU-Sim uArch: core:  8, cta: 4 initialized @(19893,0)
GPGPU-Sim uArch: Shader 6 finished CTA #5 (19905,0), 5 CTAs running
GPGPU-Sim uArch: core:  6, cta: 5 initialized @(19906,0)
GPGPU-Sim uArch: Shader 12 finished CTA #0 (19945,0), 5 CTAs running
GPGPU-Sim uArch: core: 12, cta: 0 initialized @(19946,0)
GPGPU-Sim uArch: Shader 10 finished CTA #5 (19946,0), 5 CTAs running
GPGPU-Sim uArch: core: 10, cta: 5 initialized @(19947,0)
GPGPU-Sim uArch: Shader 12 finished CTA #2 (19978,0), 5 CTAs running
GPGPU-Sim uArch: core: 12, cta: 2 initialized @(19979,0)
GPGPU-Sim uArch: Shader 8 finished CTA #2 (19998,0), 5 CTAs running
GPGPU-Sim uArch: core:  8, cta: 2 initialized @(19999,0)
GPGPU-Sim uArch: Shader 4 finished CTA #3 (19999,0), 5 CTAs running
GPGPU-Sim uArch: core:  4, cta: 3 initialized @(20000,0)
GPGPU-Sim uArch: Shader 9 finished CTA #1 (20103,0), 5 CTAs running
GPGPU-Sim uArch: core:  9, cta: 1 initialized @(20104,0)
GPGPU-Sim uArch: Shader 12 finished CTA #5 (20201,0), 5 CTAs running
GPGPU-Sim uArch: core: 12, cta: 5 initialized @(20202,0)
GPGPU-Sim uArch: Shader 7 finished CTA #0 (20203,0), 5 CTAs running
GPGPU-Sim uArch: core:  7, cta: 0 initialized @(20204,0)
GPGPU-Sim uArch: Shader 9 finished CTA #5 (20215,0), 5 CTAs running
GPGPU-Sim uArch: core:  9, cta: 5 initialized @(20216,0)
GPGPU-Sim uArch: Shader 12 finished CTA #4 (20221,0), 5 CTAs running
GPGPU-Sim uArch: core: 12, cta: 4 initialized @(20222,0)
GPGPU-Sim uArch: Shader 0 finished CTA #2 (20229,0), 5 CTAs running
GPGPU-Sim uArch: core:  0, cta: 2 initialized @(20230,0)
GPGPU-Sim uArch: Shader 14 finished CTA #5 (20344,0), 5 CTAs running
GPGPU-Sim uArch: core: 14, cta: 5 initialized @(20345,0)
GPGPU-Sim uArch: Shader 2 finished CTA #5 (20357,0), 5 CTAs running
GPGPU-Sim uArch: core:  2, cta: 5 initialized @(20358,0)
GPGPU-Sim uArch: Shader 6 finished CTA #0 (20404,0), 5 CTAs running
GPGPU-Sim uArch: core:  6, cta: 0 initialized @(20405,0)
GPGPU-Sim uArch: Shader 0 finished CTA #0 (20406,0), 5 CTAs running
GPGPU-Sim uArch: core:  0, cta: 0 initialized @(20407,0)
GPGPU-Sim uArch: Shader 1 finished CTA #1 (20469,0), 5 CTAs running
GPGPU-Sim uArch: core:  1, cta: 1 initialized @(20470,0)
GPGPU-Sim uArch: Shader 2 finished CTA #3 (20522,0), 5 CTAs running
GPGPU-Sim uArch: core:  2, cta: 3 initialized @(20523,0)
GPGPU-Sim uArch: Shader 14 finished CTA #1 (20555,0), 5 CTAs running
GPGPU-Sim uArch: Shader 14 finished CTA #2 (20555,0), 4 CTAs running
GPGPU-Sim uArch: core: 14, cta: 1 initialized @(20556,0)
GPGPU-Sim uArch: core: 14, cta: 2 initialized @(20557,0)
GPGPU-Sim uArch: Shader 2 finished CTA #0 (20590,0), 5 CTAs running
GPGPU-Sim uArch: core:  2, cta: 0 initialized @(20591,0)
GPGPU-Sim uArch: Shader 2 finished CTA #4 (20657,0), 5 CTAs running
GPGPU-Sim uArch: core:  2, cta: 4 initialized @(20658,0)
GPGPU-Sim uArch: Shader 9 finished CTA #3 (20701,0), 5 CTAs running
GPGPU-Sim uArch: core:  9, cta: 3 initialized @(20702,0)
GPGPU-Sim uArch: Shader 1 finished CTA #4 (20780,0), 5 CTAs running
GPGPU-Sim uArch: core:  1, cta: 4 initialized @(20781,0)
GPGPU-Sim uArch: Shader 9 finished CTA #2 (20810,0), 5 CTAs running
GPGPU-Sim uArch: core:  9, cta: 2 initialized @(20811,0)
GPGPU-Sim uArch: Shader 13 finished CTA #0 (20888,0), 5 CTAs running
GPGPU-Sim uArch: core: 13, cta: 0 initialized @(20889,0)
GPGPU-Sim uArch: Shader 1 finished CTA #2 (20918,0), 5 CTAs running
GPGPU-Sim uArch: core:  1, cta: 2 initialized @(20919,0)
GPGPU-Sim uArch: Shader 1 finished CTA #5 (20980,0), 5 CTAs running
GPGPU-Sim uArch: core:  1, cta: 5 initialized @(20981,0)
GPGPU-Sim uArch: Shader 7 finished CTA #2 (21124,0), 5 CTAs running
GPGPU-Sim uArch: core:  7, cta: 2 initialized @(21125,0)
GPGPU-Sim uArch: Shader 4 finished CTA #5 (21192,0), 5 CTAs running
GPGPU-Sim uArch: core:  4, cta: 5 initialized @(21193,0)
GPGPU-Sim uArch: Shader 11 finished CTA #1 (21214,0), 5 CTAs running
GPGPU-Sim uArch: core: 11, cta: 1 initialized @(21215,0)
GPGPU-Sim uArch: Shader 13 finished CTA #4 (21509,0), 5 CTAs running
GPGPU-Sim uArch: core: 13, cta: 4 initialized @(21510,0)
GPGPU-Sim uArch: Shader 4 finished CTA #4 (21575,0), 5 CTAs running
GPGPU-Sim uArch: core:  4, cta: 4 initialized @(21576,0)
GPGPU-Sim uArch: Shader 14 finished CTA #4 (21577,0), 5 CTAs running
GPGPU-Sim uArch: Shader 1 finished CTA #3 (21588,0), 5 CTAs running
GPGPU-Sim uArch: Shader 14 finished CTA #0 (21625,0), 4 CTAs running
GPGPU-Sim uArch: Shader 6 finished CTA #3 (21637,0), 5 CTAs running
GPGPU-Sim uArch: Shader 2 finished CTA #2 (21681,0), 5 CTAs running
GPGPU-Sim uArch: Shader 13 finished CTA #5 (21683,0), 5 CTAs running
GPGPU-Sim uArch: Shader 4 finished CTA #2 (21743,0), 5 CTAs running
GPGPU-Sim uArch: Shader 6 finished CTA #1 (21767,0), 4 CTAs running
GPGPU-Sim uArch: Shader 12 finished CTA #1 (21822,0), 5 CTAs running
GPGPU-Sim uArch: Shader 6 finished CTA #4 (21988,0), 3 CTAs running
GPGPU-Sim uArch: Shader 5 finished CTA #1 (22115,0), 5 CTAs running
GPGPU-Sim uArch: Shader 5 finished CTA #0 (22445,0), 4 CTAs running
GPGPU-Sim uArch: Shader 6 finished CTA #2 (22469,0), 2 CTAs running
GPGPU-Sim uArch: Shader 5 finished CTA #5 (22471,0), 3 CTAs running
GPGPU-Sim uArch: Shader 13 finished CTA #3 (22557,0), 4 CTAs running
GPGPU-Sim uArch: Shader 5 finished CTA #3 (22603,0), 2 CTAs running
GPGPU-Sim uArch: Shader 14 finished CTA #3 (22741,0), 3 CTAs running
GPGPU-Sim uArch: Shader 7 finished CTA #3 (22816,0), 5 CTAs running
GPGPU-Sim uArch: Shader 13 finished CTA #1 (22864,0), 3 CTAs running
GPGPU-Sim uArch: Shader 0 finished CTA #4 (23090,0), 5 CTAs running
GPGPU-Sim uArch: Shader 0 finished CTA #3 (23130,0), 4 CTAs running
GPGPU-Sim uArch: Shader 1 finished CTA #0 (23148,0), 4 CTAs running
GPGPU-Sim uArch: Shader 13 finished CTA #2 (23156,0), 2 CTAs running
GPGPU-Sim uArch: Shader 7 finished CTA #4 (23188,0), 4 CTAs running
GPGPU-Sim uArch: Shader 11 finished CTA #2 (23188,0), 5 CTAs running
GPGPU-Sim uArch: Shader 12 finished CTA #3 (23340,0), 4 CTAs running
GPGPU-Sim uArch: Shader 5 finished CTA #4 (23646,0), 1 CTAs running
GPGPU-Sim uArch: Shader 1 finished CTA #1 (23876,0), 3 CTAs running
GPGPU-Sim uArch: Shader 5 finished CTA #2 (23960,0), 0 CTAs running
GPGPU-Sim uArch: Shader 5 empty (release kernel 1 '_Z20convolution3D_kernelPfS_i').
GPGPU-Sim uArch: Shader 10 finished CTA #2 (23992,0), 5 CTAs running
GPGPU-Sim uArch: Shader 6 finished CTA #5 (24048,0), 1 CTAs running
GPGPU-Sim uArch: Shader 2 finished CTA #1 (24150,0), 4 CTAs running
GPGPU-Sim uArch: Shader 12 finished CTA #0 (24298,0), 3 CTAs running
GPGPU-Sim uArch: Shader 0 finished CTA #5 (24362,0), 3 CTAs running
GPGPU-Sim uArch: Shader 10 finished CTA #1 (24363,0), 4 CTAs running
GPGPU-Sim uArch: Shader 0 finished CTA #1 (24376,0), 2 CTAs running
GPGPU-Sim uArch: Shader 7 finished CTA #5 (24434,0), 3 CTAs running
GPGPU-Sim uArch: Shader 10 finished CTA #3 (24554,0), 3 CTAs running
GPGPU-Sim uArch: Shader 12 finished CTA #5 (24563,0), 2 CTAs running
GPGPU-Sim uArch: Shader 3 finished CTA #1 (24567,0), 5 CTAs running
GPGPU-Sim uArch: Shader 9 finished CTA #4 (24622,0), 5 CTAs running
GPGPU-Sim uArch: Shader 4 finished CTA #0 (24632,0), 4 CTAs running
GPGPU-Sim uArch: Shader 2 finished CTA #5 (24634,0), 3 CTAs running
GPGPU-Sim uArch: Shader 2 finished CTA #3 (24740,0), 2 CTAs running
GPGPU-Sim uArch: Shader 13 finished CTA #0 (24752,0), 1 CTAs running
GPGPU-Sim uArch: Shader 9 finished CTA #0 (24796,0), 4 CTAs running
GPGPU-Sim uArch: Shader 10 finished CTA #0 (24796,0), 2 CTAs running
GPGPU-Sim uArch: Shader 11 finished CTA #0 (24804,0), 4 CTAs running
GPGPU-Sim uArch: Shader 7 finished CTA #0 (24834,0), 2 CTAs running
GPGPU-Sim uArch: Shader 3 finished CTA #2 (24845,0), 4 CTAs running
GPGPU-Sim uArch: Shader 3 finished CTA #5 (24861,0), 3 CTAs running
GPGPU-Sim uArch: Shader 6 finished CTA #0 (24881,0), 0 CTAs running
GPGPU-Sim uArch: Shader 6 empty (release kernel 1 '_Z20convolution3D_kernelPfS_i').
GPGPU-Sim uArch: Shader 14 finished CTA #5 (24907,0), 2 CTAs running
GPGPU-Sim uArch: Shader 0 finished CTA #0 (24908,0), 1 CTAs running
GPGPU-Sim uArch: Shader 12 finished CTA #4 (24941,0), 1 CTAs running
GPGPU-Sim uArch: Shader 1 finished CTA #4 (24948,0), 2 CTAs running
GPGPU-Sim uArch: Shader 11 finished CTA #4 (24966,0), 3 CTAs running
GPGPU-Sim uArch: Shader 0 finished CTA #2 (24972,0), 0 CTAs running
GPGPU-Sim uArch: Shader 0 empty (release kernel 1 '_Z20convolution3D_kernelPfS_i').
GPGPU-Sim uArch: Shader 9 finished CTA #5 (24982,0), 3 CTAs running
GPGPU-Sim uArch: Shader 12 finished CTA #2 (25035,0), 0 CTAs running
GPGPU-Sim uArch: Shader 12 empty (release kernel 1 '_Z20convolution3D_kernelPfS_i').
GPGPU-Sim uArch: Shader 7 finished CTA #1 (25057,0), 1 CTAs running
GPGPU-Sim uArch: Shader 3 finished CTA #0 (25058,0), 2 CTAs running
GPGPU-Sim uArch: Shader 14 finished CTA #1 (25108,0), 1 CTAs running
GPGPU-Sim uArch: Shader 14 finished CTA #2 (25170,0), 0 CTAs running
GPGPU-Sim uArch: Shader 14 empty (release kernel 1 '_Z20convolution3D_kernelPfS_i').
GPGPU-Sim uArch: Shader 10 finished CTA #5 (25199,0), 1 CTAs running
GPGPU-Sim uArch: Shader 3 finished CTA #3 (25211,0), 1 CTAs running
GPGPU-Sim uArch: Shader 9 finished CTA #1 (25270,0), 2 CTAs running
GPGPU-Sim uArch: Shader 11 finished CTA #3 (25308,0), 2 CTAs running
GPGPU-Sim uArch: Shader 8 finished CTA #3 (25326,0), 5 CTAs running
GPGPU-Sim uArch: Shader 10 finished CTA #4 (25333,0), 0 CTAs running
GPGPU-Sim uArch: Shader 10 empty (release kernel 1 '_Z20convolution3D_kernelPfS_i').
GPGPU-Sim uArch: Shader 2 finished CTA #4 (25374,0), 1 CTAs running
GPGPU-Sim uArch: Shader 2 finished CTA #0 (25380,0), 0 CTAs running
GPGPU-Sim uArch: Shader 2 empty (release kernel 1 '_Z20convolution3D_kernelPfS_i').
GPGPU-Sim uArch: Shader 9 finished CTA #2 (25395,0), 1 CTAs running
GPGPU-Sim uArch: Shader 4 finished CTA #1 (25435,0), 3 CTAs running
GPGPU-Sim uArch: Shader 11 finished CTA #5 (25453,0), 1 CTAs running
GPGPU-Sim uArch: Shader 13 finished CTA #4 (25495,0), 0 CTAs running
GPGPU-Sim uArch: Shader 13 empty (release kernel 1 '_Z20convolution3D_kernelPfS_i').
GPGPU-Sim uArch: Shader 9 finished CTA #3 (25511,0), 0 CTAs running
GPGPU-Sim uArch: Shader 9 empty (release kernel 1 '_Z20convolution3D_kernelPfS_i').
GPGPU-Sim uArch: Shader 8 finished CTA #0 (25516,0), 4 CTAs running
GPGPU-Sim uArch: Shader 1 finished CTA #2 (25541,0), 1 CTAs running
GPGPU-Sim uArch: Shader 3 finished CTA #4 (25545,0), 0 CTAs running
GPGPU-Sim uArch: Shader 3 empty (release kernel 1 '_Z20convolution3D_kernelPfS_i').
GPGPU-Sim uArch: Shader 4 finished CTA #4 (25699,0), 2 CTAs running
GPGPU-Sim uArch: Shader 1 finished CTA #5 (25763,0), 0 CTAs running
GPGPU-Sim uArch: Shader 1 empty (release kernel 1 '_Z20convolution3D_kernelPfS_i').
GPGPU-Sim uArch: Shader 7 finished CTA #2 (25886,0), 0 CTAs running
GPGPU-Sim uArch: Shader 7 empty (release kernel 1 '_Z20convolution3D_kernelPfS_i').
GPGPU-Sim uArch: Shader 8 finished CTA #5 (25911,0), 3 CTAs running
GPGPU-Sim uArch: Shader 8 finished CTA #4 (25921,0), 2 CTAs running
GPGPU-Sim uArch: Shader 4 finished CTA #3 (25926,0), 1 CTAs running
GPGPU-Sim uArch: Shader 8 finished CTA #1 (25968,0), 1 CTAs running
GPGPU-Sim uArch: Shader 4 finished CTA #5 (26079,0), 0 CTAs running
GPGPU-Sim uArch: Shader 4 empty (release kernel 1 '_Z20convolution3D_kernelPfS_i').
GPGPU-Sim uArch: Shader 11 finished CTA #1 (26101,0), 0 CTAs running
GPGPU-Sim uArch: Shader 11 empty (release kernel 1 '_Z20convolution3D_kernelPfS_i').
GPGPU-Sim uArch: Shader 8 finished CTA #2 (26465,0), 0 CTAs running
GPGPU-Sim uArch: Shader 8 empty (release kernel 1 '_Z20convolution3D_kernelPfS_i').
GPGPU-Sim uArch: GPU detected kernel '_Z20convolution3D_kernelPfS_i' finished on shader 8.
kernel_name = _Z20convolution3D_kernelPfS_i 
kernel_launch_uid = 1 
gpu_sim_cycle = 26466
gpu_sim_insn = 5052380
gpu_ipc =     190.9008
gpu_tot_sim_cycle = 26466
gpu_tot_sim_insn = 5052380
gpu_tot_ipc =     190.9008
gpu_tot_issued_cta = 0
gpu_stall_dramfull = 60941
gpu_stall_icnt2sh    = 198031
gpu_total_sim_rate=219668

========= Core cache stats =========
L1I_cache:
	L1I_total_cache_accesses = 87206
	L1I_total_cache_misses = 1678
	L1I_total_cache_miss_rate = 0.0192
	L1I_total_cache_pending_hits = 0
	L1I_total_cache_reservation_fails = 9380
L1D_cache:
	L1D_cache_core[0]: Access = 2512, Miss = 1902, Miss_rate = 0.757, Pending_hits = 139, Reservation_fails = 16800
	L1D_cache_core[1]: Access = 2550, Miss = 1943, Miss_rate = 0.762, Pending_hits = 162, Reservation_fails = 15245
	L1D_cache_core[2]: Access = 2540, Miss = 1919, Miss_rate = 0.756, Pending_hits = 168, Reservation_fails = 16171
	L1D_cache_core[3]: Access = 2748, Miss = 2070, Miss_rate = 0.753, Pending_hits = 170, Reservation_fails = 15978
	L1D_cache_core[4]: Access = 3226, Miss = 2017, Miss_rate = 0.625, Pending_hits = 442, Reservation_fails = 14628
	L1D_cache_core[5]: Access = 2636, Miss = 1859, Miss_rate = 0.705, Pending_hits = 231, Reservation_fails = 13281
	L1D_cache_core[6]: Access = 2124, Miss = 1788, Miss_rate = 0.842, Pending_hits = 77, Reservation_fails = 15769
	L1D_cache_core[7]: Access = 2472, Miss = 1947, Miss_rate = 0.788, Pending_hits = 144, Reservation_fails = 16569
	L1D_cache_core[8]: Access = 2738, Miss = 2158, Miss_rate = 0.788, Pending_hits = 112, Reservation_fails = 17805
	L1D_cache_core[9]: Access = 2736, Miss = 2068, Miss_rate = 0.756, Pending_hits = 161, Reservation_fails = 16198
	L1D_cache_core[10]: Access = 2672, Miss = 1992, Miss_rate = 0.746, Pending_hits = 159, Reservation_fails = 16301
	L1D_cache_core[11]: Access = 2636, Miss = 2117, Miss_rate = 0.803, Pending_hits = 115, Reservation_fails = 16554
	L1D_cache_core[12]: Access = 2544, Miss = 1938, Miss_rate = 0.762, Pending_hits = 153, Reservation_fails = 16786
	L1D_cache_core[13]: Access = 2106, Miss = 1747, Miss_rate = 0.830, Pending_hits = 123, Reservation_fails = 16370
	L1D_cache_core[14]: Access = 2368, Miss = 1880, Miss_rate = 0.794, Pending_hits = 110, Reservation_fails = 16054
	L1D_total_cache_accesses = 38608
	L1D_total_cache_misses = 29345
	L1D_total_cache_miss_rate = 0.7601
	L1D_total_cache_pending_hits = 2466
	L1D_total_cache_reservation_fails = 240509
	L1D_cache_data_port_util = 0.018
	L1D_cache_fill_port_util = 0.072
L1C_cache:
	L1C_total_cache_accesses = 6112
	L1C_total_cache_misses = 480
	L1C_total_cache_miss_rate = 0.0785
	L1C_total_cache_pending_hits = 0
	L1C_total_cache_reservation_fails = 3420
L1T_cache:
	L1T_total_cache_accesses = 0
	L1T_total_cache_misses = 0
	L1T_total_cache_pending_hits = 0
	L1T_total_cache_reservation_fails = 0

Total_core_cache_stats:
	Total_core_cache_stats_breakdown[GLOBAL_ACC_R][HIT] = 6797
	Total_core_cache_stats_breakdown[GLOBAL_ACC_R][HIT_RESERVED] = 2466
	Total_core_cache_stats_breakdown[GLOBAL_ACC_R][MISS] = 27313
	Total_core_cache_stats_breakdown[GLOBAL_ACC_R][RESERVATION_FAIL] = 233245
	Total_core_cache_stats_breakdown[CONST_ACC_R][HIT] = 5632
	Total_core_cache_stats_breakdown[CONST_ACC_R][MISS] = 480
	Total_core_cache_stats_breakdown[CONST_ACC_R][RESERVATION_FAIL] = 3420
	Total_core_cache_stats_breakdown[GLOBAL_ACC_W][MISS] = 2032
	Total_core_cache_stats_breakdown[GLOBAL_ACC_W][RESERVATION_FAIL] = 7264
	Total_core_cache_stats_breakdown[INST_ACC_R][HIT] = 85528
	Total_core_cache_stats_breakdown[INST_ACC_R][MISS] = 1678
	Total_core_cache_stats_breakdown[INST_ACC_R][RESERVATION_FAIL] = 9380
Shader 0 warp_id issue ditsribution:
warp_id:
0, 1, 2, 3, 4, 5, 6, 7, 8, 9, 10, 11, 12, 13, 14, 15, 16, 17, 18, 19, 20, 21, 22, 23, 24, 25, 26, 27, 28, 29, 30, 31, 32, 33, 34, 35, 36, 37, 38, 39, 40, 41, 42, 43, 44, 45, 46, 47, 
distro:
252, 252, 252, 252, 252, 252, 252, 252, 252, 252, 252, 252, 252, 252, 252, 252, 252, 252, 252, 252, 252, 252, 252, 252, 168, 168, 168, 168, 168, 168, 168, 168, 168, 168, 168, 168, 168, 168, 168, 168, 252, 252, 252, 252, 252, 252, 252, 252, 
gpgpu_n_tot_thrd_icount = 5472256
gpgpu_n_tot_w_icount = 171008
gpgpu_n_stall_shd_mem = 258153
gpgpu_n_mem_read_local = 0
gpgpu_n_mem_write_local = 0
gpgpu_n_mem_read_global = 27313
gpgpu_n_mem_write_global = 2032
gpgpu_n_mem_texture = 0
gpgpu_n_mem_const = 15
gpgpu_n_load_insn  = 709676
gpgpu_n_store_insn = 64516
gpgpu_n_shmem_insn = 0
gpgpu_n_tex_insn = 0
gpgpu_n_const_mem_insn = 0
gpgpu_n_param_mem_insn = 194568
gpgpu_n_shmem_bkconflict = 0
gpgpu_n_cache_bkconflict = 0
gpgpu_n_intrawarp_mshr_merge = 0
gpgpu_n_cmem_portconflict = 3420
gpgpu_stall_shd_mem[c_mem][bk_conf] = 3420
gpgpu_stall_shd_mem[c_mem][mshr_rc] = 0
gpgpu_stall_shd_mem[c_mem][icnt_rc] = 0
gpgpu_stall_shd_mem[c_mem][data_port_stall] = 0
gpgpu_stall_shd_mem[t_mem][mshr_rc] = 0
gpgpu_stall_shd_mem[t_mem][icnt_rc] = 0
gpgpu_stall_shd_mem[t_mem][data_port_stall] = 0
gpgpu_stall_shd_mem[s_mem][bk_conf] = 0
gpgpu_stall_shd_mem[gl_mem][bk_conf] = 0
gpgpu_stall_shd_mem[gl_mem][coal_stall] = 254733
gpgpu_stall_shd_mem[gl_mem][data_port_stall] = 0
gpgpu_stall_shd_mem[g_mem_ld][mshr_rc] = 0
gpgpu_stall_shd_mem[g_mem_ld][icnt_rc] = 0
gpgpu_stall_shd_mem[g_mem_ld][wb_icnt_rc] = 0
gpgpu_stall_shd_mem[g_mem_ld][wb_rsrv_fail] = 0
gpgpu_stall_shd_mem[g_mem_st][mshr_rc] = 0
gpgpu_stall_shd_mem[g_mem_st][icnt_rc] = 0
gpgpu_stall_shd_mem[g_mem_st][wb_icnt_rc] = 0
gpgpu_stall_shd_mem[g_mem_st][wb_rsrv_fail] = 0
gpgpu_stall_shd_mem[l_mem_ld][mshr_rc] = 0
gpgpu_stall_shd_mem[l_mem_ld][icnt_rc] = 0
gpgpu_stall_shd_mem[l_mem_ld][wb_icnt_rc] = 0
gpgpu_stall_shd_mem[l_mem_ld][wb_rsrv_fail] = 0
gpgpu_stall_shd_mem[l_mem_st][mshr_rc] = 0
gpgpu_stall_shd_mem[l_mem_st][icnt_rc] = 0
gpgpu_stall_shd_mem[l_mem_ld][wb_icnt_rc] = 0
gpgpu_stall_shd_mem[l_mem_ld][wb_rsrv_fail] = 0
gpu_reg_bank_conflict_stalls = 0
Warp Occupancy Distribution:
Stall:386378	W0_Idle:67449	W0_Scoreboard:138347	W1:0	W2:0	W3:0	W4:0	W5:0	W6:0	W7:0	W8:0	W9:0	W10:0	W11:0	W12:0	W13:0	W14:0	W15:0	W16:0	W17:0	W18:0	W19:0	W20:0	W21:0	W22:0	W23:0	W24:0	W25:0	W26:0	W27:0	W28:0	W29:0	W30:0	W31:29724	W32:141284
traffic_breakdown_coretomem[CONST_ACC_R] = 120 {8:15,}
traffic_breakdown_coretomem[GLOBAL_ACC_R] = 218504 {8:27313,}
traffic_breakdown_coretomem[GLOBAL_ACC_W] = 276352 {136:2032,}
traffic_breakdown_coretomem[INST_ACC_R] = 720 {8:90,}
traffic_breakdown_memtocore[CONST_ACC_R] = 1080 {72:15,}
traffic_breakdown_memtocore[GLOBAL_ACC_R] = 3714568 {136:27313,}
traffic_breakdown_memtocore[GLOBAL_ACC_W] = 16256 {8:2032,}
traffic_breakdown_memtocore[INST_ACC_R] = 12240 {136:90,}
maxmrqlatency = 254 
maxdqlatency = 0 
maxmflatency = 906 
max_icnt2mem_latency = 558 
max_icnt2sh_latency = 26465 
mrq_lat_table:6317 	1242 	531 	626 	800 	421 	223 	55 	0 	0 	0 	0 	0 	0 	0 	0 	0 	0 	0 	0 	0 	0 	0 	0 	0 	0 	0 	0 	0 	0 	0 	0 	
dq_lat_table:0 	0 	0 	0 	0 	0 	0 	0 	0 	0 	0 	0 	0 	0 	0 	0 	0 	0 	0 	0 	0 	0 	0 	0 	0 	0 	0 	0 	0 	0 	0 	0 	
mf_lat_table:0 	0 	0 	0 	0 	0 	0 	8184 	19622 	1554 	0 	0 	0 	0 	0 	0 	0 	0 	0 	0 	0 	0 	0 	0 	0 	0 	0 	0 	0 	0 	0 	0 	
icnt2mem_lat_table:0 	0 	0 	14230 	4858 	3311 	3582 	2935 	532 	2 	0 	0 	0 	0 	0 	0 	0 	0 	0 	0 	0 	0 	0 	0 	
icnt2sh_lat_table:0 	0 	0 	1086 	15281 	10592 	369 	0 	0 	0 	0 	0 	160 	701 	1171 	0 	0 	0 	0 	0 	0 	0 	0 	0 	
mf_lat_pw_table:0 	0 	0 	0 	0 	0 	0 	0 	0 	0 	0 	0 	0 	0 	0 	0 	0 	0 	0 	0 	0 	0 	0 	0 	0 	0 	0 	0 	0 	0 	0 	0 	
maximum concurrent accesses to same row:
dram[0]:        32        32        32        32        32        38        32        32        32        32        36        38        64        64        38        52 
dram[1]:        32        32        32        32        32        34        32        32        32        32        40        40        62        64        46        46 
dram[2]:        31        32        32        32        32        32        32        32        32        32        38        40        64        64        52        40 
dram[3]:        32        32        32        32        32        32        32        32        32        32        38        36        64        64        48        48 
dram[4]:        32        32        32        32        32        32        32        32        32        32        40        44        64        64        42        56 
dram[5]:        32        32        32        32        34        32        32        32        32        32        34        42        64        64        46        52 
maximum service time to same row:
dram[0]:      7962      8677     10490     12702     14614      9478     10144     10718     15696     17019     10334     10716      6232      6039      7230      6432 
dram[1]:      8317      8598     10343     12991      9635      9332     10750     10243     17580     17400     10771     10791      5736      6559      6991      6374 
dram[2]:      7651      8292     12377     10311      9290      9791     10639     10263     16933     16395     10834      9185      5462      5822      6417      6040 
dram[3]:      8477      8690     13050     11462      9604      9394     10549     11103     17370     17460     10641      9544      6381      5664      6138      7015 
dram[4]:      8232      8322     10361     12496      9682      9417     10223     10564     16281     16959     10565     10990      5432      6341      6098      6727 
dram[5]:      8792      8305     10449     13266      9376      9491     11090     10828     17410     17185     10386     10767      5753      6571      7204      6436 
average row accesses per activate:
dram[0]: 21.833334 25.600000  9.846154  9.846154 18.000000 17.333334 32.000000 32.000000 32.000000 32.000000 17.333334 17.333334 42.666668 42.666668  9.846154 11.636364 
dram[1]: 32.500000 25.600000 11.636364 14.222222 13.500000 17.333334 32.000000 32.000000 32.000000 32.000000 26.000000 26.000000 25.600000 42.666668  8.533334  8.533334 
dram[2]: 16.250000 42.666668  8.533334  7.529412 13.500000 26.000000 32.000000 32.000000 32.000000 32.000000 17.333334 13.500000 42.666668 42.666668 18.285715 11.636364 
dram[3]: 42.666668 42.666668  9.846154 14.222222 18.000000 26.000000 32.000000 32.000000 32.000000 32.000000 17.333334  9.000000 42.666668 42.666668 11.636364  8.533334 
dram[4]: 42.666668 25.600000  5.565217 11.636364 17.333334 26.000000 32.000000 32.000000 32.000000 32.000000 26.000000 27.000000 42.666668 42.666668  9.846154 18.285715 
dram[5]: 42.666668 18.285715 11.636364 11.636364 17.333334 26.000000 32.000000 32.000000 32.000000 32.000000 10.400000 18.000000 42.666668 42.666668  6.736842 11.636364 
average row locality = 10215/589 = 17.342955
number of total memory accesses made:
dram[0]:         0         0         0         0         0         0         0         0         0         0         0         0         0         0         0         0 
dram[1]:         0         0         0         0         0         0         0         0         0         0         0         0         0         0         0         0 
dram[2]:         0         0         0         0         0         0         0         0         0         0         0         0         0         0         0         0 
dram[3]:         0         0         0         0         0         0         0         0         0         0         0         0         0         0         0         0 
dram[4]:         0         0         0         0         0         0         0         0         0         0         0         0         0         0         0         0 
dram[5]:         0         0         0         0         0         0         0         0         0         0         0         0         0         0         0         0 
total accesses: 0
min_bank_accesses = 0!
min_chip_accesses = 0!
number of total read accesses:
dram[0]:        99        96        96        96        86        84        64        64        64        64        84        84        96        96        96        96 
dram[1]:        98        96        96        96        86        84        64        64        64        64        84        84        96        96        96        96 
dram[2]:        98        96        96        96        86        84        64        64        64        64        84        86        96        96        96        96 
dram[3]:        96        96        96        96        86        84        64        64        64        64        84        86        96        96        96        96 
dram[4]:        96        96        96        96        84        84        64        64        64        64        84        86        96        96        96        96 
dram[5]:        96        96        96        96        84        84        64        64        64        64        84        86        96        96        96        96 
total reads: 8183
bank skew: 99/64 = 1.55
chip skew: 1366/1362 = 1.00
number of total write accesses:
dram[0]:        32        32        32        32        22        20         0         0         0         0        20        20        32        32        32        32 
dram[1]:        32        32        32        32        22        20         0         0         0         0        20        20        32        32        32        32 
dram[2]:        32        32        32        32        22        20         0         0         0         0        20        22        32        32        32        32 
dram[3]:        32        32        32        32        22        20         0         0         0         0        20        22        32        32        32        32 
dram[4]:        32        32        32        32        20        20         0         0         0         0        20        22        32        32        32        32 
dram[5]:        32        32        32        32        20        20         0         0         0         0        20        22        32        32        32        32 
total reads: 2032
min_bank_accesses = 0!
chip skew: 340/338 = 1.01
average mf latency per bank:
dram[0]:        628       859       536       610       551       742      1155      1532       979      1237       876      1335       776      1032       698       998
dram[1]:       1034       707       899       527       904       651      1857      1388      1830      1140      1471      1054      1484       964      1212       789
dram[2]:        779       659       738       514       748       590      1630      1147      1242       941      1203       896      1152       833       942       661
dram[3]:        790       939       539       679       639       870      1328      1584      1172      1527      1140      1298       924      1234       862      1058
dram[4]:        635       729       549       631       591       755      1142      1559      1048      1235       881      1155       794      1050       705       867
dram[5]:        880       749       733       504       839       655      1632      1342      1482      1184      1338      1101      1318       966      1010       772
maximum mf latency per bank:
dram[0]:        531       754       582       495       518       597       518       641       518       581       671       621       635       726       606       706
dram[1]:        784       599       744       607       732       650       647       659       753       602       712       596       718       656       758       635
dram[2]:        609       534       709       584       586       545       544       572       669       564       662       629       724       678       606       580
dram[3]:        704       613       612       720       539       712       634       790       630       720       657       785       592       648       678       707
dram[4]:        543       623       522       666       523       539       554       544       596       664       524       631       568       616       620       629
dram[5]:        721       696       726       557       682       634       660       640       717       617       735       672       906       647       751       687
Memory Partition 0: 
Cache L2_bank_000:
MSHR contents

Cache L2_bank_001:
MSHR contents

In Dram Latency Queue (total = 0): 
DRAM[0]: 16 bks, busW=4 BL=8 CL=12, tRRD=2 tCCD=6, tRCD=12 tRAS=28 tRP=12 tRC=40
n_cmd=34441 n_nop=30853 n_act=99 n_pre=83 n_req=1703 n_rd=2730 n_write=676 bw_util=0.1978
n_activity=17395 dram_eff=0.3916
bk0: 198a 32882i bk1: 192a 32843i bk2: 192a 32447i bk3: 192a 32473i bk4: 172a 33249i bk5: 168a 33167i bk6: 128a 34015i bk7: 128a 33792i bk8: 128a 33893i bk9: 128a 33814i bk10: 168a 33257i bk11: 168a 32687i bk12: 192a 32841i bk13: 192a 32253i bk14: 192a 32164i bk15: 192a 31924i 
dram_util_bins: 0 0 0 0 0 0 0 0 0 0
dram_eff_bins: 0 0 0 0 0 0 0 0 0 0
mrqq: max=16 avg=0.571847
Memory Partition 1: 
Cache L2_bank_002:
MSHR contents

Cache L2_bank_003:
MSHR contents

In Dram Latency Queue (total = 0): 
DRAM[1]: 16 bks, busW=4 BL=8 CL=12, tRRD=2 tCCD=6, tRCD=12 tRAS=28 tRP=12 tRC=40
n_cmd=34441 n_nop=30859 n_act=97 n_pre=81 n_req=1702 n_rd=2728 n_write=676 bw_util=0.1977
n_activity=17219 dram_eff=0.3954
bk0: 196a 32531i bk1: 192a 32760i bk2: 192a 32418i bk3: 192a 32235i bk4: 172a 33051i bk5: 168a 33136i bk6: 128a 33770i bk7: 128a 33936i bk8: 128a 33918i bk9: 128a 33936i bk10: 168a 33348i bk11: 168a 33250i bk12: 192a 32342i bk13: 192a 32678i bk14: 192a 32355i bk15: 192a 32374i 
dram_util_bins: 0 0 0 0 0 0 0 0 0 0
dram_eff_bins: 0 0 0 0 0 0 0 0 0 0
mrqq: max=16 avg=0.516768
Memory Partition 2: 
Cache L2_bank_004:
MSHR contents

Cache L2_bank_005:
MSHR contents

In Dram Latency Queue (total = 0): 
DRAM[2]: 16 bks, busW=4 BL=8 CL=12, tRRD=2 tCCD=6, tRCD=12 tRAS=28 tRP=12 tRC=40
n_cmd=34441 n_nop=30843 n_act=101 n_pre=85 n_req=1706 n_rd=2732 n_write=680 bw_util=0.1981
n_activity=17012 dram_eff=0.4011
bk0: 196a 32843i bk1: 192a 32939i bk2: 192a 32596i bk3: 192a 32605i bk4: 172a 33044i bk5: 168a 33042i bk6: 128a 33878i bk7: 128a 33895i bk8: 128a 33898i bk9: 128a 33729i bk10: 168a 33143i bk11: 172a 32903i bk12: 192a 32445i bk13: 192a 32390i bk14: 192a 32580i bk15: 192a 32409i 
dram_util_bins: 0 0 0 0 0 0 0 0 0 0
dram_eff_bins: 0 0 0 0 0 0 0 0 0 0
mrqq: max=16 avg=0.502105
Memory Partition 3: 
Cache L2_bank_006:
MSHR contents

Cache L2_bank_007:
MSHR contents

In Dram Latency Queue (total = 0): 
DRAM[3]: 16 bks, busW=4 BL=8 CL=12, tRRD=2 tCCD=6, tRCD=12 tRAS=28 tRP=12 tRC=40
n_cmd=34441 n_nop=30857 n_act=96 n_pre=80 n_req=1704 n_rd=2728 n_write=680 bw_util=0.1979
n_activity=17292 dram_eff=0.3942
bk0: 192a 32887i bk1: 192a 32636i bk2: 192a 32643i bk3: 192a 32516i bk4: 172a 33229i bk5: 168a 33240i bk6: 128a 33876i bk7: 128a 33699i bk8: 128a 33932i bk9: 128a 33805i bk10: 168a 33226i bk11: 172a 32978i bk12: 192a 32937i bk13: 192a 32524i bk14: 192a 32623i bk15: 192a 32421i 
dram_util_bins: 0 0 0 0 0 0 0 0 0 0
dram_eff_bins: 0 0 0 0 0 0 0 0 0 0
mrqq: max=12 avg=0.411486
Memory Partition 4: 
Cache L2_bank_008:
MSHR contents

Cache L2_bank_009:
MSHR contents

In Dram Latency Queue (total = 0): 
DRAM[4]: 16 bks, busW=4 BL=8 CL=12, tRRD=2 tCCD=6, tRCD=12 tRAS=28 tRP=12 tRC=40
n_cmd=34441 n_nop=30869 n_act=94 n_pre=78 n_req=1700 n_rd=2724 n_write=676 bw_util=0.1974
n_activity=17184 dram_eff=0.3957
bk0: 192a 32919i bk1: 192a 32892i bk2: 192a 32448i bk3: 192a 32387i bk4: 168a 33174i bk5: 168a 33275i bk6: 128a 33688i bk7: 128a 33790i bk8: 128a 33942i bk9: 128a 33929i bk10: 168a 33370i bk11: 172a 33129i bk12: 192a 32658i bk13: 192a 32460i bk14: 192a 32235i bk15: 192a 32519i 
dram_util_bins: 0 0 0 0 0 0 0 0 0 0
dram_eff_bins: 0 0 0 0 0 0 0 0 0 0
mrqq: max=16 avg=0.486687
Memory Partition 5: 
Cache L2_bank_010:
MSHR contents
MSHR: tag=0x84079d80, atomic=0 1 entries : 0x7fe775c9d3b0 :  mf: uid=387267, sid08:w23, part=5, addr=0x84079d80, load , size=128, unknown  status = IN_PARTITION_DRAM (26463), 

Cache L2_bank_011:
MSHR contents

In Dram Latency Queue (total = 0): 
DRAM[5]: 16 bks, busW=4 BL=8 CL=12, tRRD=2 tCCD=6, tRCD=12 tRAS=28 tRP=12 tRC=40
n_cmd=34441 n_nop=30853 n_act=102 n_pre=86 n_req=1700 n_rd=2724 n_write=676 bw_util=0.1974
n_activity=17652 dram_eff=0.3852
bk0: 192a 32962i bk1: 192a 32807i bk2: 192a 32711i bk3: 192a 32564i bk4: 168a 33210i bk5: 168a 33241i bk6: 128a 33795i bk7: 128a 33900i bk8: 128a 33972i bk9: 128a 33853i bk10: 168a 33187i bk11: 172a 33076i bk12: 192a 32793i bk13: 192a 32786i bk14: 192a 32146i bk15: 192a 32656i 
dram_util_bins: 0 0 0 0 0 0 0 0 0 0
dram_eff_bins: 0 0 0 0 0 0 0 0 0 0
mrqq: max=16 avg=0.371824

========= L2 cache stats =========
L2_cache_bank[0]: Access = 2257, Miss = 685, Miss_rate = 0.304, Pending_hits = 56, Reservation_fails = 361
L2_cache_bank[1]: Access = 2580, Miss = 680, Miss_rate = 0.264, Pending_hits = 69, Reservation_fails = 145
L2_cache_bank[2]: Access = 2637, Miss = 684, Miss_rate = 0.259, Pending_hits = 71, Reservation_fails = 124
L2_cache_bank[3]: Access = 2385, Miss = 680, Miss_rate = 0.285, Pending_hits = 28, Reservation_fails = 3
L2_cache_bank[4]: Access = 2602, Miss = 684, Miss_rate = 0.263, Pending_hits = 82, Reservation_fails = 123
L2_cache_bank[5]: Access = 2236, Miss = 682, Miss_rate = 0.305, Pending_hits = 55, Reservation_fails = 71
L2_cache_bank[6]: Access = 2372, Miss = 682, Miss_rate = 0.288, Pending_hits = 28, Reservation_fails = 3
L2_cache_bank[7]: Access = 2609, Miss = 682, Miss_rate = 0.261, Pending_hits = 74, Reservation_fails = 6
L2_cache_bank[8]: Access = 2222, Miss = 680, Miss_rate = 0.306, Pending_hits = 56, Reservation_fails = 0
L2_cache_bank[9]: Access = 2560, Miss = 682, Miss_rate = 0.266, Pending_hits = 70, Reservation_fails = 46
L2_cache_bank[10]: Access = 2611, Miss = 680, Miss_rate = 0.260, Pending_hits = 56, Reservation_fails = 0
L2_cache_bank[11]: Access = 2379, Miss = 682, Miss_rate = 0.287, Pending_hits = 31, Reservation_fails = 2
L2_total_cache_accesses = 29450
L2_total_cache_misses = 8183
L2_total_cache_miss_rate = 0.2779
L2_total_cache_pending_hits = 676
L2_total_cache_reservation_fails = 884
L2_total_cache_breakdown:
	L2_cache_stats_breakdown[GLOBAL_ACC_R][HIT] = 20514
	L2_cache_stats_breakdown[GLOBAL_ACC_R][HIT_RESERVED] = 655
	L2_cache_stats_breakdown[GLOBAL_ACC_R][MISS] = 6144
	L2_cache_stats_breakdown[GLOBAL_ACC_R][RESERVATION_FAIL] = 317
	L2_cache_stats_breakdown[CONST_ACC_R][HIT] = 11
	L2_cache_stats_breakdown[CONST_ACC_R][HIT_RESERVED] = 3
	L2_cache_stats_breakdown[CONST_ACC_R][MISS] = 1
	L2_cache_stats_breakdown[CONST_ACC_R][RESERVATION_FAIL] = 109
	L2_cache_stats_breakdown[GLOBAL_ACC_W][MISS] = 2032
	L2_cache_stats_breakdown[GLOBAL_ACC_W][RESERVATION_FAIL] = 24
	L2_cache_stats_breakdown[INST_ACC_R][HIT] = 66
	L2_cache_stats_breakdown[INST_ACC_R][HIT_RESERVED] = 18
	L2_cache_stats_breakdown[INST_ACC_R][MISS] = 6
	L2_cache_stats_breakdown[INST_ACC_R][RESERVATION_FAIL] = 434
L2_cache_data_port_util = 0.259
L2_cache_fill_port_util = 0.103

icnt_total_pkts_mem_to_simt=139092
icnt_total_pkts_simt_to_mem=37578
LD_mem_lat_dist  0 0 0 0 0 0 0 0 0 0 0 0 0 0 0 0 0 0 0 0 0 0 0 0 0 0 0
ST_mem_lat_dist  0 0 0 0 0 0 0 0 0 0 0 0 0 0 0 0 0 0 0 0 0 0 0 0 0 0 0
----------------------------Interconnect-DETAILS--------------------------------
Class 0:
Packet latency average = 27.5239
	minimum = 6
	maximum = 351
Network latency average = 20.7987
	minimum = 6
	maximum = 335
Slowest packet = 15498
Flit latency average = 16.5582
	minimum = 6
	maximum = 331
Slowest flit = 45900
Fragmentation average = 0.0567742
	minimum = 0
	maximum = 229
Injected packet rate average = 0.0824258
	minimum = 0.0662737 (at node 13)
	maximum = 0.0996373 (at node 17)
Accepted packet rate average = 0.0824258
	minimum = 0.0662737 (at node 13)
	maximum = 0.0996373 (at node 17)
Injected flit rate average = 0.247235
	minimum = 0.0828988 (at node 13)
	maximum = 0.472493 (at node 17)
Accepted flit rate average= 0.247235
	minimum = 0.109348 (at node 23)
	maximum = 0.387327 (at node 8)
Injected packet length average = 2.99949
Accepted packet length average = 2.99949
Total in-flight flits = 0 (0 measured)
====== Overall Traffic Statistics ======
====== Traffic class 0 ======
Packet latency average = 27.5239 (1 samples)
	minimum = 6 (1 samples)
	maximum = 351 (1 samples)
Network latency average = 20.7987 (1 samples)
	minimum = 6 (1 samples)
	maximum = 335 (1 samples)
Flit latency average = 16.5582 (1 samples)
	minimum = 6 (1 samples)
	maximum = 331 (1 samples)
Fragmentation average = 0.0567742 (1 samples)
	minimum = 0 (1 samples)
	maximum = 229 (1 samples)
Injected packet rate average = 0.0824258 (1 samples)
	minimum = 0.0662737 (1 samples)
	maximum = 0.0996373 (1 samples)
Accepted packet rate average = 0.0824258 (1 samples)
	minimum = 0.0662737 (1 samples)
	maximum = 0.0996373 (1 samples)
Injected flit rate average = 0.247235 (1 samples)
	minimum = 0.0828988 (1 samples)
	maximum = 0.472493 (1 samples)
Accepted flit rate average = 0.247235 (1 samples)
	minimum = 0.109348 (1 samples)
	maximum = 0.387327 (1 samples)
Injected packet size average = 2.99949 (1 samples)
Accepted packet size average = 2.99949 (1 samples)
Hops average = 1 (1 samples)
----------------------------END-of-Interconnect-DETAILS-------------------------


gpgpu_simulation_time = 0 days, 0 hrs, 0 min, 23 sec (23 sec)
gpgpu_simulation_rate = 219668 (inst/sec)
gpgpu_simulation_rate = 1150 (cycle/sec)

GPGPU-Sim PTX: cudaLaunch for 0x0x401890 (mode=performance simulation) on stream 0
GPGPU-Sim PTX: pushing kernel '_Z20convolution3D_kernelPfS_i' to stream 0, gridDim= (8,32,1) blockDim = (32,8,1) 
####  CUstream_st::push: Start pushing kernel: convolution3D_kernel  ####
[...]
GPGPU-Sim PTX: pushing kernel '_Z20convolution3D_kernelPfS_i' to stream 0, gridDim= (8,32,1) blockDim = (32,8,1) 

GPGPU-Sim PTX: cudaLaunch for 0x0x401890 (mode=performance simulation) on stream 0
GPGPU-Sim PTX: pushing kernel '_Z20convolution3D_kernelPfS_i' to stream 0, gridDim= (8,32,1) blockDim = (32,8,1) 

GPGPU-Sim PTX: cudaLaunch for 0x0x401890 (mode=performance simulation) on stream 0
GPGPU-Sim PTX: pushing kernel '_Z20convolution3D_kernelPfS_i' to stream 0, gridDim= (8,32,1) blockDim = (32,8,1) 

GPGPU-Sim PTX: cudaLaunch for 0x0x401890 (mode=performance simulation) on stream 0
GPGPU-Sim PTX: pushing kernel '_Z20convolution3D_kernelPfS_i' to stream 0, gridDim= (8,32,1) blockDim = (32,8,1) 

GPGPU-Sim PTX: cudaLaunch for 0x0x401890 (mode=performance simulation) on stream 0
GPGPU-Sim PTX: pushing kernel '_Z20convolution3D_kernelPfS_i' to stream 0, gridDim= (8,32,1) blockDim = (32,8,1) 

GPGPU-Sim PTX: cudaLaunch for 0x0x401890 (mode=performance simulation) on stream 0
GPGPU-Sim PTX: pushing kernel '_Z20convolution3D_kernelPfS_i' to stream 0, gridDim= (8,32,1) blockDim = (32,8,1) 

GPGPU-Sim PTX: cudaLaunch for 0x0x401890 (mode=performance simulation) on stream 0
GPGPU-Sim PTX: pushing kernel '_Z20convolution3D_kernelPfS_i' to stream 0, gridDim= (8,32,1) blockDim = (32,8,1) 

GPGPU-Sim PTX: cudaLaunch for 0x0x401890 (mode=performance simulation) on stream 0
GPGPU-Sim PTX: pushing kernel '_Z20convolution3D_kernelPfS_i' to stream 0, gridDim= (8,32,1) blockDim = (32,8,1) 

GPGPU-Sim PTX: cudaLaunch for 0x0x401890 (mode=performance simulation) on stream 0
GPGPU-Sim PTX: pushing kernel '_Z20convolution3D_kernelPfS_i' to stream 0, gridDim= (8,32,1) blockDim = (32,8,1) 

GPGPU-Sim PTX: cudaLaunch for 0x0x401890 (mode=performance simulation) on stream 0
GPGPU-Sim PTX: pushing kernel '_Z20convolution3D_kernelPfS_i' to stream 0, gridDim= (8,32,1) blockDim = (32,8,1) 

GPGPU-Sim PTX: cudaLaunch for 0x0x401890 (mode=performance simulation) on stream 0
GPGPU-Sim PTX: pushing kernel '_Z20convolution3D_kernelPfS_i' to stream 0, gridDim= (8,32,1) blockDim = (32,8,1) 

GPGPU-Sim PTX: cudaLaunch for 0x0x401890 (mode=performance simulation) on stream 0
GPGPU-Sim PTX: pushing kernel '_Z20convolution3D_kernelPfS_i' to stream 0, gridDim= (8,32,1) blockDim = (32,8,1) 

GPGPU-Sim PTX: cudaLaunch for 0x0x401890 (mode=performance simulation) on stream 0
GPGPU-Sim PTX: pushing kernel '_Z20convolution3D_kernelPfS_i' to stream 0, gridDim= (8,32,1) blockDim = (32,8,1) 

GPGPU-Sim PTX: cudaLaunch for 0x0x401890 (mode=performance simulation) on stream 0
GPGPU-Sim PTX: pushing kernel '_Z20convolution3D_kernelPfS_i' to stream 0, gridDim= (8,32,1) blockDim = (32,8,1) 

GPGPU-Sim PTX: cudaLaunch for 0x0x401890 (mode=performance simulation) on stream 0
GPGPU-Sim PTX: pushing kernel '_Z20convolution3D_kernelPfS_i' to stream 0, gridDim= (8,32,1) blockDim = (32,8,1) 

GPGPU-Sim PTX: cudaLaunch for 0x0x401890 (mode=performance simulation) on stream 0
GPGPU-Sim PTX: pushing kernel '_Z20convolution3D_kernelPfS_i' to stream 0, gridDim= (8,32,1) blockDim = (32,8,1) 

GPGPU-Sim PTX: cudaLaunch for 0x0x401890 (mode=performance simulation) on stream 0
GPGPU-Sim PTX: pushing kernel '_Z20convolution3D_kernelPfS_i' to stream 0, gridDim= (8,32,1) blockDim = (32,8,1) 

GPGPU-Sim PTX: cudaLaunch for 0x0x401890 (mode=performance simulation) on stream 0
GPGPU-Sim PTX: pushing kernel '_Z20convolution3D_kernelPfS_i' to stream 0, gridDim= (8,32,1) blockDim = (32,8,1) 

GPGPU-Sim PTX: cudaLaunch for 0x0x401890 (mode=performance simulation) on stream 0
GPGPU-Sim PTX: pushing kernel '_Z20convolution3D_kernelPfS_i' to stream 0, gridDim= (8,32,1) blockDim = (32,8,1) 

GPGPU-Sim PTX: cudaLaunch for 0x0x401890 (mode=performance simulation) on stream 0
GPGPU-Sim PTX: pushing kernel '_Z20convolution3D_kernelPfS_i' to stream 0, gridDim= (8,32,1) blockDim = (32,8,1) 

GPGPU-Sim PTX: cudaLaunch for 0x0x401890 (mode=performance simulation) on stream 0
GPGPU-Sim PTX: pushing kernel '_Z20convolution3D_kernelPfS_i' to stream 0, gridDim= (8,32,1) blockDim = (32,8,1) 

GPGPU-Sim PTX: cudaLaunch for 0x0x401890 (mode=performance simulation) on stream 0
GPGPU-Sim PTX: pushing kernel '_Z20convolution3D_kernelPfS_i' to stream 0, gridDim= (8,32,1) blockDim = (32,8,1) 

GPGPU-Sim PTX: cudaLaunch for 0x0x401890 (mode=performance simulation) on stream 0
GPGPU-Sim PTX: pushing kernel '_Z20convolution3D_kernelPfS_i' to stream 0, gridDim= (8,32,1) blockDim = (32,8,1) 

GPGPU-Sim PTX: cudaLaunch for 0x0x401890 (mode=performance simulation) on stream 0
GPGPU-Sim PTX: pushing kernel '_Z20convolution3D_kernelPfS_i' to stream 0, gridDim= (8,32,1) blockDim = (32,8,1) 

GPGPU-Sim PTX: cudaLaunch for 0x0x401890 (mode=performance simulation) on stream 0
GPGPU-Sim PTX: pushing kernel '_Z20convolution3D_kernelPfS_i' to stream 0, gridDim= (8,32,1) blockDim = (32,8,1) 

GPGPU-Sim PTX: cudaLaunch for 0x0x401890 (mode=performance simulation) on stream 0
GPGPU-Sim PTX: pushing kernel '_Z20convolution3D_kernelPfS_i' to stream 0, gridDim= (8,32,1) blockDim = (32,8,1) 

GPGPU-Sim PTX: cudaLaunch for 0x0x401890 (mode=performance simulation) on stream 0
GPGPU-Sim PTX: pushing kernel '_Z20convolution3D_kernelPfS_i' to stream 0, gridDim= (8,32,1) blockDim = (32,8,1) 

GPGPU-Sim PTX: cudaLaunch for 0x0x401890 (mode=performance simulation) on stream 0
GPGPU-Sim PTX: pushing kernel '_Z20convolution3D_kernelPfS_i' to stream 0, gridDim= (8,32,1) blockDim = (32,8,1) 

GPGPU-Sim PTX: cudaLaunch for 0x0x401890 (mode=performance simulation) on stream 0
GPGPU-Sim PTX: pushing kernel '_Z20convolution3D_kernelPfS_i' to stream 0, gridDim= (8,32,1) blockDim = (32,8,1) 

GPGPU-Sim PTX: cudaLaunch for 0x0x401890 (mode=performance simulation) on stream 0
GPGPU-Sim PTX: pushing kernel '_Z20convolution3D_kernelPfS_i' to stream 0, gridDim= (8,32,1) blockDim = (32,8,1) 

GPGPU-Sim PTX: cudaLaunch for 0x0x401890 (mode=performance simulation) on stream 0
GPGPU-Sim PTX: pushing kernel '_Z20convolution3D_kernelPfS_i' to stream 0, gridDim= (8,32,1) blockDim = (32,8,1) 

GPGPU-Sim PTX: cudaLaunch for 0x0x401890 (mode=performance simulation) on stream 0
GPGPU-Sim PTX: pushing kernel '_Z20convolution3D_kernelPfS_i' to stream 0, gridDim= (8,32,1) blockDim = (32,8,1) 

GPGPU-Sim PTX: cudaLaunch for 0x0x401890 (mode=performance simulation) on stream 0
GPGPU-Sim PTX: pushing kernel '_Z20convolution3D_kernelPfS_i' to stream 0, gridDim= (8,32,1) blockDim = (32,8,1) 

GPGPU-Sim PTX: cudaLaunch for 0x0x401890 (mode=performance simulation) on stream 0
GPGPU-Sim PTX: pushing kernel '_Z20convolution3D_kernelPfS_i' to stream 0, gridDim= (8,32,1) blockDim = (32,8,1) 

GPGPU-Sim PTX: cudaLaunch for 0x0x401890 (mode=performance simulation) on stream 0
GPGPU-Sim PTX: pushing kernel '_Z20convolution3D_kernelPfS_i' to stream 0, gridDim= (8,32,1) blockDim = (32,8,1) 

GPGPU-Sim PTX: cudaLaunch for 0x0x401890 (mode=performance simulation) on stream 0
GPGPU-Sim PTX: pushing kernel '_Z20convolution3D_kernelPfS_i' to stream 0, gridDim= (8,32,1) blockDim = (32,8,1) 

GPGPU-Sim PTX: cudaLaunch for 0x0x401890 (mode=performance simulation) on stream 0
GPGPU-Sim PTX: pushing kernel '_Z20convolution3D_kernelPfS_i' to stream 0, gridDim= (8,32,1) blockDim = (32,8,1) 

GPGPU-Sim PTX: cudaLaunch for 0x0x401890 (mode=performance simulation) on stream 0
GPGPU-Sim PTX: pushing kernel '_Z20convolution3D_kernelPfS_i' to stream 0, gridDim= (8,32,1) blockDim = (32,8,1) 

GPGPU-Sim PTX: cudaLaunch for 0x0x401890 (mode=performance simulation) on stream 0
GPGPU-Sim PTX: pushing kernel '_Z20convolution3D_kernelPfS_i' to stream 0, gridDim= (8,32,1) blockDim = (32,8,1) 

GPGPU-Sim PTX: cudaLaunch for 0x0x401890 (mode=performance simulation) on stream 0
GPGPU-Sim PTX: pushing kernel '_Z20convolution3D_kernelPfS_i' to stream 0, gridDim= (8,32,1) blockDim = (32,8,1) 

GPGPU-Sim PTX: cudaLaunch for 0x0x401890 (mode=performance simulation) on stream 0
GPGPU-Sim PTX: pushing kernel '_Z20convolution3D_kernelPfS_i' to stream 0, gridDim= (8,32,1) blockDim = (32,8,1) 

GPGPU-Sim PTX: cudaLaunch for 0x0x401890 (mode=performance simulation) on stream 0
GPGPU-Sim PTX: pushing kernel '_Z20convolution3D_kernelPfS_i' to stream 0, gridDim= (8,32,1) blockDim = (32,8,1) 

GPGPU-Sim PTX: cudaLaunch for 0x0x401890 (mode=performance simulation) on stream 0
GPGPU-Sim PTX: pushing kernel '_Z20convolution3D_kernelPfS_i' to stream 0, gridDim= (8,32,1) blockDim = (32,8,1) 

GPGPU-Sim PTX: cudaLaunch for 0x0x401890 (mode=performance simulation) on stream 0
GPGPU-Sim PTX: pushing kernel '_Z20convolution3D_kernelPfS_i' to stream 0, gridDim= (8,32,1) blockDim = (32,8,1) 

GPGPU-Sim PTX: cudaLaunch for 0x0x401890 (mode=performance simulation) on stream 0
GPGPU-Sim PTX: pushing kernel '_Z20convolution3D_kernelPfS_i' to stream 0, gridDim= (8,32,1) blockDim = (32,8,1) 

GPGPU-Sim PTX: cudaLaunch for 0x0x401890 (mode=performance simulation) on stream 0
GPGPU-Sim PTX: pushing kernel '_Z20convolution3D_kernelPfS_i' to stream 0, gridDim= (8,32,1) blockDim = (32,8,1) 

GPGPU-Sim PTX: cudaLaunch for 0x0x401890 (mode=performance simulation) on stream 0
GPGPU-Sim PTX: pushing kernel '_Z20convolution3D_kernelPfS_i' to stream 0, gridDim= (8,32,1) blockDim = (32,8,1) 

GPGPU-Sim PTX: cudaLaunch for 0x0x401890 (mode=performance simulation) on stream 0
GPGPU-Sim PTX: pushing kernel '_Z20convolution3D_kernelPfS_i' to stream 0, gridDim= (8,32,1) blockDim = (32,8,1) 

GPGPU-Sim PTX: cudaLaunch for 0x0x401890 (mode=performance simulation) on stream 0
GPGPU-Sim PTX: pushing kernel '_Z20convolution3D_kernelPfS_i' to stream 0, gridDim= (8,32,1) blockDim = (32,8,1) 

GPGPU-Sim PTX: cudaLaunch for 0x0x401890 (mode=performance simulation) on stream 0
GPGPU-Sim PTX: pushing kernel '_Z20convolution3D_kernelPfS_i' to stream 0, gridDim= (8,32,1) blockDim = (32,8,1) 

GPGPU-Sim PTX: cudaLaunch for 0x0x401890 (mode=performance simulation) on stream 0
GPGPU-Sim PTX: pushing kernel '_Z20convolution3D_kernelPfS_i' to stream 0, gridDim= (8,32,1) blockDim = (32,8,1) 

GPGPU-Sim PTX: cudaLaunch for 0x0x401890 (mode=performance simulation) on stream 0
GPGPU-Sim PTX: pushing kernel '_Z20convolution3D_kernelPfS_i' to stream 0, gridDim= (8,32,1) blockDim = (32,8,1) 

GPGPU-Sim PTX: cudaLaunch for 0x0x401890 (mode=performance simulation) on stream 0
GPGPU-Sim PTX: pushing kernel '_Z20convolution3D_kernelPfS_i' to stream 0, gridDim= (8,32,1) blockDim = (32,8,1) 

GPGPU-Sim PTX: cudaLaunch for 0x0x401890 (mode=performance simulation) on stream 0
GPGPU-Sim PTX: pushing kernel '_Z20convolution3D_kernelPfS_i' to stream 0, gridDim= (8,32,1) blockDim = (32,8,1) 

GPGPU-Sim PTX: cudaLaunch for 0x0x401890 (mode=performance simulation) on stream 0
GPGPU-Sim PTX: pushing kernel '_Z20convolution3D_kernelPfS_i' to stream 0, gridDim= (8,32,1) blockDim = (32,8,1) 

GPGPU-Sim PTX: cudaLaunch for 0x0x401890 (mode=performance simulation) on stream 0
GPGPU-Sim PTX: pushing kernel '_Z20convolution3D_kernelPfS_i' to stream 0, gridDim= (8,32,1) blockDim = (32,8,1) 

GPGPU-Sim PTX: cudaLaunch for 0x0x401890 (mode=performance simulation) on stream 0
GPGPU-Sim PTX: pushing kernel '_Z20convolution3D_kernelPfS_i' to stream 0, gridDim= (8,32,1) blockDim = (32,8,1) 

GPGPU-Sim PTX: cudaLaunch for 0x0x401890 (mode=performance simulation) on stream 0
GPGPU-Sim PTX: pushing kernel '_Z20convolution3D_kernelPfS_i' to stream 0, gridDim= (8,32,1) blockDim = (32,8,1) 

GPGPU-Sim PTX: cudaLaunch for 0x0x401890 (mode=performance simulation) on stream 0
GPGPU-Sim PTX: pushing kernel '_Z20convolution3D_kernelPfS_i' to stream 0, gridDim= (8,32,1) blockDim = (32,8,1) 

GPGPU-Sim PTX: cudaLaunch for 0x0x401890 (mode=performance simulation) on stream 0
GPGPU-Sim PTX: pushing kernel '_Z20convolution3D_kernelPfS_i' to stream 0, gridDim= (8,32,1) blockDim = (32,8,1) 

GPGPU-Sim PTX: cudaLaunch for 0x0x401890 (mode=performance simulation) on stream 0
GPGPU-Sim PTX: pushing kernel '_Z20convolution3D_kernelPfS_i' to stream 0, gridDim= (8,32,1) blockDim = (32,8,1) 

GPGPU-Sim PTX: cudaLaunch for 0x0x401890 (mode=performance simulation) on stream 0
GPGPU-Sim PTX: pushing kernel '_Z20convolution3D_kernelPfS_i' to stream 0, gridDim= (8,32,1) blockDim = (32,8,1) 

GPGPU-Sim PTX: cudaLaunch for 0x0x401890 (mode=performance simulation) on stream 0
GPGPU-Sim PTX: pushing kernel '_Z20convolution3D_kernelPfS_i' to stream 0, gridDim= (8,32,1) blockDim = (32,8,1) 

GPGPU-Sim PTX: cudaLaunch for 0x0x401890 (mode=performance simulation) on stream 0
GPGPU-Sim PTX: pushing kernel '_Z20convolution3D_kernelPfS_i' to stream 0, gridDim= (8,32,1) blockDim = (32,8,1) 

GPGPU-Sim PTX: cudaLaunch for 0x0x401890 (mode=performance simulation) on stream 0
GPGPU-Sim PTX: pushing kernel '_Z20convolution3D_kernelPfS_i' to stream 0, gridDim= (8,32,1) blockDim = (32,8,1) 

GPGPU-Sim PTX: cudaLaunch for 0x0x401890 (mode=performance simulation) on stream 0
GPGPU-Sim PTX: pushing kernel '_Z20convolution3D_kernelPfS_i' to stream 0, gridDim= (8,32,1) blockDim = (32,8,1) 

GPGPU-Sim PTX: cudaLaunch for 0x0x401890 (mode=performance simulation) on stream 0
GPGPU-Sim PTX: pushing kernel '_Z20convolution3D_kernelPfS_i' to stream 0, gridDim= (8,32,1) blockDim = (32,8,1) 

GPGPU-Sim PTX: cudaLaunch for 0x0x401890 (mode=performance simulation) on stream 0
GPGPU-Sim PTX: pushing kernel '_Z20convolution3D_kernelPfS_i' to stream 0, gridDim= (8,32,1) blockDim = (32,8,1) 

GPGPU-Sim PTX: cudaLaunch for 0x0x401890 (mode=performance simulation) on stream 0
GPGPU-Sim PTX: pushing kernel '_Z20convolution3D_kernelPfS_i' to stream 0, gridDim= (8,32,1) blockDim = (32,8,1) 

GPGPU-Sim PTX: cudaLaunch for 0x0x401890 (mode=performance simulation) on stream 0
GPGPU-Sim PTX: pushing kernel '_Z20convolution3D_kernelPfS_i' to stream 0, gridDim= (8,32,1) blockDim = (32,8,1) 

GPGPU-Sim PTX: cudaLaunch for 0x0x401890 (mode=performance simulation) on stream 0
GPGPU-Sim PTX: pushing kernel '_Z20convolution3D_kernelPfS_i' to stream 0, gridDim= (8,32,1) blockDim = (32,8,1) 

GPGPU-Sim PTX: cudaLaunch for 0x0x401890 (mode=performance simulation) on stream 0
GPGPU-Sim PTX: pushing kernel '_Z20convolution3D_kernelPfS_i' to stream 0, gridDim= (8,32,1) blockDim = (32,8,1) 

GPGPU-Sim PTX: cudaLaunch for 0x0x401890 (mode=performance simulation) on stream 0
GPGPU-Sim PTX: pushing kernel '_Z20convolution3D_kernelPfS_i' to stream 0, gridDim= (8,32,1) blockDim = (32,8,1) 

GPGPU-Sim PTX: cudaLaunch for 0x0x401890 (mode=performance simulation) on stream 0
GPGPU-Sim PTX: pushing kernel '_Z20convolution3D_kernelPfS_i' to stream 0, gridDim= (8,32,1) blockDim = (32,8,1) 

GPGPU-Sim PTX: cudaLaunch for 0x0x401890 (mode=performance simulation) on stream 0
GPGPU-Sim PTX: pushing kernel '_Z20convolution3D_kernelPfS_i' to stream 0, gridDim= (8,32,1) blockDim = (32,8,1) 

GPGPU-Sim PTX: cudaLaunch for 0x0x401890 (mode=performance simulation) on stream 0
GPGPU-Sim PTX: pushing kernel '_Z20convolution3D_kernelPfS_i' to stream 0, gridDim= (8,32,1) blockDim = (32,8,1) 

GPGPU-Sim PTX: cudaLaunch for 0x0x401890 (mode=performance simulation) on stream 0
GPGPU-Sim PTX: pushing kernel '_Z20convolution3D_kernelPfS_i' to stream 0, gridDim= (8,32,1) blockDim = (32,8,1) 

GPGPU-Sim PTX: cudaLaunch for 0x0x401890 (mode=performance simulation) on stream 0
GPGPU-Sim PTX: pushing kernel '_Z20convolution3D_kernelPfS_i' to stream 0, gridDim= (8,32,1) blockDim = (32,8,1) 

GPGPU-Sim PTX: cudaLaunch for 0x0x401890 (mode=performance simulation) on stream 0
GPGPU-Sim PTX: pushing kernel '_Z20convolution3D_kernelPfS_i' to stream 0, gridDim= (8,32,1) blockDim = (32,8,1) 

GPGPU-Sim PTX: cudaLaunch for 0x0x401890 (mode=performance simulation) on stream 0
GPGPU-Sim PTX: pushing kernel '_Z20convolution3D_kernelPfS_i' to stream 0, gridDim= (8,32,1) blockDim = (32,8,1) 

GPGPU-Sim PTX: cudaLaunch for 0x0x401890 (mode=performance simulation) on stream 0
GPGPU-Sim PTX: pushing kernel '_Z20convolution3D_kernelPfS_i' to stream 0, gridDim= (8,32,1) blockDim = (32,8,1) 

GPGPU-Sim PTX: cudaLaunch for 0x0x401890 (mode=performance simulation) on stream 0
GPGPU-Sim PTX: pushing kernel '_Z20convolution3D_kernelPfS_i' to stream 0, gridDim= (8,32,1) blockDim = (32,8,1) 

GPGPU-Sim PTX: cudaLaunch for 0x0x401890 (mode=performance simulation) on stream 0
GPGPU-Sim PTX: pushing kernel '_Z20convolution3D_kernelPfS_i' to stream 0, gridDim= (8,32,1) blockDim = (32,8,1) 

GPGPU-Sim PTX: cudaLaunch for 0x0x401890 (mode=performance simulation) on stream 0
GPGPU-Sim PTX: pushing kernel '_Z20convolution3D_kernelPfS_i' to stream 0, gridDim= (8,32,1) blockDim = (32,8,1) 

GPGPU-Sim PTX: cudaLaunch for 0x0x401890 (mode=performance simulation) on stream 0
GPGPU-Sim PTX: pushing kernel '_Z20convolution3D_kernelPfS_i' to stream 0, gridDim= (8,32,1) blockDim = (32,8,1) 

GPGPU-Sim PTX: cudaLaunch for 0x0x401890 (mode=performance simulation) on stream 0
GPGPU-Sim PTX: pushing kernel '_Z20convolution3D_kernelPfS_i' to stream 0, gridDim= (8,32,1) blockDim = (32,8,1) 

GPGPU-Sim PTX: cudaLaunch for 0x0x401890 (mode=performance simulation) on stream 0
GPGPU-Sim PTX: pushing kernel '_Z20convolution3D_kernelPfS_i' to stream 0, gridDim= (8,32,1) blockDim = (32,8,1) 

GPGPU-Sim PTX: cudaLaunch for 0x0x401890 (mode=performance simulation) on stream 0
GPGPU-Sim PTX: pushing kernel '_Z20convolution3D_kernelPfS_i' to stream 0, gridDim= (8,32,1) blockDim = (32,8,1) 

GPGPU-Sim PTX: cudaLaunch for 0x0x401890 (mode=performance simulation) on stream 0
GPGPU-Sim PTX: pushing kernel '_Z20convolution3D_kernelPfS_i' to stream 0, gridDim= (8,32,1) blockDim = (32,8,1) 

GPGPU-Sim PTX: cudaLaunch for 0x0x401890 (mode=performance simulation) on stream 0
GPGPU-Sim PTX: pushing kernel '_Z20convolution3D_kernelPfS_i' to stream 0, gridDim= (8,32,1) blockDim = (32,8,1) 

GPGPU-Sim PTX: cudaLaunch for 0x0x401890 (mode=performance simulation) on stream 0
GPGPU-Sim PTX: pushing kernel '_Z20convolution3D_kernelPfS_i' to stream 0, gridDim= (8,32,1) blockDim = (32,8,1) 

GPGPU-Sim PTX: cudaLaunch for 0x0x401890 (mode=performance simulation) on stream 0
GPGPU-Sim PTX: pushing kernel '_Z20convolution3D_kernelPfS_i' to stream 0, gridDim= (8,32,1) blockDim = (32,8,1) 

GPGPU-Sim PTX: cudaLaunch for 0x0x401890 (mode=performance simulation) on stream 0
GPGPU-Sim PTX: pushing kernel '_Z20convolution3D_kernelPfS_i' to stream 0, gridDim= (8,32,1) blockDim = (32,8,1) 

GPGPU-Sim PTX: cudaLaunch for 0x0x401890 (mode=performance simulation) on stream 0
GPGPU-Sim PTX: pushing kernel '_Z20convolution3D_kernelPfS_i' to stream 0, gridDim= (8,32,1) blockDim = (32,8,1) 

GPGPU-Sim PTX: cudaLaunch for 0x0x401890 (mode=performance simulation) on stream 0
GPGPU-Sim PTX: pushing kernel '_Z20convolution3D_kernelPfS_i' to stream 0, gridDim= (8,32,1) blockDim = (32,8,1) 

GPGPU-Sim PTX: cudaLaunch for 0x0x401890 (mode=performance simulation) on stream 0
GPGPU-Sim PTX: pushing kernel '_Z20convolution3D_kernelPfS_i' to stream 0, gridDim= (8,32,1) blockDim = (32,8,1) 

GPGPU-Sim PTX: cudaLaunch for 0x0x401890 (mode=performance simulation) on stream 0
GPGPU-Sim PTX: pushing kernel '_Z20convolution3D_kernelPfS_i' to stream 0, gridDim= (8,32,1) blockDim = (32,8,1) 

GPGPU-Sim PTX: cudaLaunch for 0x0x401890 (mode=performance simulation) on stream 0
GPGPU-Sim PTX: pushing kernel '_Z20convolution3D_kernelPfS_i' to stream 0, gridDim= (8,32,1) blockDim = (32,8,1) 

GPGPU-Sim PTX: cudaLaunch for 0x0x401890 (mode=performance simulation) on stream 0
GPGPU-Sim PTX: pushing kernel '_Z20convolution3D_kernelPfS_i' to stream 0, gridDim= (8,32,1) blockDim = (32,8,1) 

GPGPU-Sim PTX: cudaLaunch for 0x0x401890 (mode=performance simulation) on stream 0
GPGPU-Sim PTX: pushing kernel '_Z20convolution3D_kernelPfS_i' to stream 0, gridDim= (8,32,1) blockDim = (32,8,1) 
GPGPU-Sim: synchronize waiting for inactive GPU simulation
GPGPU-Sim API: Stream Manager State
GPGPU-Sim: detected inactive GPU simulation thread
GPU Runtime: 20.123271s
CPU Runtime: 0.160891s
Non-Matching CPU-GPU Outputs Beyond Error Threshold of 0.50 Percent: 16322548
