

        *** GPGPU-Sim Simulator Version 3.2.2  [build 0] ***


GPGPU-Sim PTX: simulation mode 0 (can change with PTX_SIM_MODE_FUNC environment variable:
               1=functional simulation only, 0=detailed performance simulator)
GPGPU-Sim: Configuration options:

-network_mode                           1 # Interconnection network mode
-inter_config_file   config_fermi_islip.icnt # Interconnection network config file
-gpgpu_ptx_use_cuobjdump                    1 # Use cuobjdump to extract ptx and sass from binaries
-gpgpu_experimental_lib_support                    0 # Try to extract code from cuda libraries [Broken because of unknown cudaGetExportTable]
-gpgpu_ptx_convert_to_ptxplus                    0 # Convert SASS (native ISA) to ptxplus and run ptxplus
-gpgpu_ptx_force_max_capability                   20 # Force maximum compute capability
-gpgpu_ptx_inst_debug_to_file                    0 # Dump executed instructions' debug information to file
-gpgpu_ptx_inst_debug_file       inst_debug.txt # Executed instructions' debug output file
-gpgpu_ptx_inst_debug_thread_uid                    1 # Thread UID for executed instructions' debug output
-gpgpu_simd_model                       1 # 1 = post-dominator
-gpgpu_shader_core_pipeline              1536:32 # shader core pipeline config, i.e., {<nthread>:<warpsize>}
-gpgpu_tex_cache:l1  4:128:24,L:R:m:N:L,F:128:4,128:2 # per-shader L1 texture cache  (READ-ONLY) config  {<nsets>:<bsize>:<assoc>,<rep>:<wr>:<alloc>:<wr_alloc>,<mshr>:<N>:<merge>,<mq>:<rf>}
-gpgpu_const_cache:l1 64:64:2,L:R:f:N:L,A:2:32,4 # per-shader L1 constant memory cache  (READ-ONLY) config  {<nsets>:<bsize>:<assoc>,<rep>:<wr>:<alloc>:<wr_alloc>,<mshr>:<N>:<merge>,<mq>} 
-gpgpu_cache:il1     4:128:4,L:R:f:N:L,A:2:32,4 # shader L1 instruction cache config  {<nsets>:<bsize>:<assoc>,<rep>:<wr>:<alloc>:<wr_alloc>,<mshr>:<N>:<merge>,<mq>} 
-gpgpu_cache:dl1     32:128:4,L:L:m:N:H,A:32:8,8 # per-shader L1 data cache config  {<nsets>:<bsize>:<assoc>,<rep>:<wr>:<alloc>:<wr_alloc>,<mshr>:<N>:<merge>,<mq> | none}
-gpgpu_cache:dl1PrefL1                 none # per-shader L1 data cache config  {<nsets>:<bsize>:<assoc>,<rep>:<wr>:<alloc>:<wr_alloc>,<mshr>:<N>:<merge>,<mq> | none}
-gpgpu_cache:dl1PreShared                 none # per-shader L1 data cache config  {<nsets>:<bsize>:<assoc>,<rep>:<wr>:<alloc>:<wr_alloc>,<mshr>:<N>:<merge>,<mq> | none}
-gmem_skip_L1D                          0 # global memory access skip L1D cache (implements -Xptxas -dlcm=cg, default=no skip)
-gpgpu_perfect_mem                      0 # enable perfect memory mode (no cache miss)
-n_regfile_gating_group                    4 # group of lanes that should be read/written together)
-gpgpu_clock_gated_reg_file                    0 # enable clock gated reg file for power calculations
-gpgpu_clock_gated_lanes                    0 # enable clock gated lanes for power calculations
-gpgpu_shader_registers                32768 # Number of registers per shader core. Limits number of concurrent CTAs. (default 8192)
-gpgpu_shader_cta                       8 # Maximum number of concurrent CTAs in shader (default 8)
-gpgpu_num_cta_barriers                   16 # Maximum number of named barriers per CTA (default 16)
-gpgpu_n_clusters                      15 # number of processing clusters
-gpgpu_n_cores_per_cluster                    1 # number of simd cores per cluster
-gpgpu_n_cluster_ejection_buffer_size                    8 # number of packets in ejection buffer
-gpgpu_n_ldst_response_buffer_size                    2 # number of response packets in ld/st unit ejection buffer
-gpgpu_shmem_size                   16384 # Size of shared memory per shader core (default 16kB)
-gpgpu_shmem_size                   49152 # Size of shared memory per shader core (default 16kB)
-gpgpu_shmem_size_PrefL1                16384 # Size of shared memory per shader core (default 16kB)
-gpgpu_shmem_size_PrefShared                16384 # Size of shared memory per shader core (default 16kB)
-gpgpu_shmem_num_banks                   32 # Number of banks in the shared memory in each shader core (default 16)
-gpgpu_shmem_limited_broadcast                    0 # Limit shared memory to do one broadcast per cycle (default on)
-gpgpu_shmem_warp_parts                    1 # Number of portions a warp is divided into for shared memory bank conflict check 
-gpgpu_warpdistro_shader                   -1 # Specify which shader core to collect the warp size distribution from
-gpgpu_warp_issue_shader                    0 # Specify which shader core to collect the warp issue distribution from
-gpgpu_local_mem_map                    1 # Mapping from local memory space address to simulated GPU physical address space (default = enabled)
-gpgpu_num_reg_banks                   16 # Number of register banks (default = 8)
-gpgpu_reg_bank_use_warp_id                    0 # Use warp ID in mapping registers to banks (default = off)
-gpgpu_operand_collector_num_units_sp                    6 # number of collector units (default = 4)
-gpgpu_operand_collector_num_units_sfu                    8 # number of collector units (default = 4)
-gpgpu_operand_collector_num_units_mem                    2 # number of collector units (default = 2)
-gpgpu_operand_collector_num_units_gen                    0 # number of collector units (default = 0)
-gpgpu_operand_collector_num_in_ports_sp                    2 # number of collector unit in ports (default = 1)
-gpgpu_operand_collector_num_in_ports_sfu                    1 # number of collector unit in ports (default = 1)
-gpgpu_operand_collector_num_in_ports_mem                    1 # number of collector unit in ports (default = 1)
-gpgpu_operand_collector_num_in_ports_gen                    0 # number of collector unit in ports (default = 0)
-gpgpu_operand_collector_num_out_ports_sp                    2 # number of collector unit in ports (default = 1)
-gpgpu_operand_collector_num_out_ports_sfu                    1 # number of collector unit in ports (default = 1)
-gpgpu_operand_collector_num_out_ports_mem                    1 # number of collector unit in ports (default = 1)
-gpgpu_operand_collector_num_out_ports_gen                    0 # number of collector unit in ports (default = 0)
-gpgpu_coalesce_arch                   13 # Coalescing arch (default = 13, anything else is off for now)
-gpgpu_num_sched_per_core                    2 # Number of warp schedulers per core
-gpgpu_max_insn_issue_per_warp                    1 # Max number of instructions that can be issued per warp in one cycle by scheduler
-gpgpu_simt_core_sim_order                    1 # Select the simulation order of cores in a cluster (0=Fix, 1=Round-Robin)
-gpgpu_pipeline_widths        2,1,1,2,1,1,2 # Pipeline widths ID_OC_SP,ID_OC_SFU,ID_OC_MEM,OC_EX_SP,OC_EX_SFU,OC_EX_MEM,EX_WB
-gpgpu_num_sp_units                     2 # Number of SP units (default=1)
-gpgpu_num_sfu_units                    1 # Number of SF units (default=1)
-gpgpu_num_mem_units                    1 # Number if ldst units (default=1) WARNING: not hooked up to anything
-gpgpu_scheduler                      lrr # Scheduler configuration: < lrr | gto | two_level_active > If two_level_active:<num_active_warps>:<inner_prioritization>:<outer_prioritization>For complete list of prioritization values see shader.h enum scheduler_prioritization_typeDefault: gto
-gpgpu_dram_scheduler                    1 # 0 = fifo, 1 = FR-FCFS (defaul)
-gpgpu_dram_partition_queues              8:8:8:8 # i2$:$2d:d2$:$2i
-l2_ideal                               0 # Use a ideal L2 cache that always hit
-gpgpu_cache:dl2     64:128:8,L:B:m:W:L,A:32:4,4:0,32 # unified banked L2 data cache config  {<nsets>:<bsize>:<assoc>,<rep>:<wr>:<alloc>:<wr_alloc>,<mshr>:<N>:<merge>,<mq>}
-gpgpu_cache:dl2_texture_only                    0 # L2 cache used for texture only
-gpgpu_n_mem                            6 # number of memory modules (e.g. memory controllers) in gpu
-gpgpu_n_sub_partition_per_mchannel                    2 # number of memory subpartition in each memory module
-gpgpu_n_mem_per_ctrlr                    2 # number of memory chips per memory controller
-gpgpu_memlatency_stat                   14 # track and display latency statistics 0x2 enables MC, 0x4 enables queue logs
-gpgpu_frfcfs_dram_sched_queue_size                   16 # 0 = unlimited (default); # entries per chip
-gpgpu_dram_return_queue_size                  116 # 0 = unlimited (default); # entries per chip
-gpgpu_dram_buswidth                    4 # default = 4 bytes (8 bytes per cycle at DDR)
-gpgpu_dram_burst_length                    8 # Burst length of each DRAM request (default = 4 data bus cycle)
-dram_data_command_freq_ratio                    4 # Frequency ratio between DRAM data bus and command bus (default = 2 times, i.e. DDR)
-gpgpu_dram_timing_opt nbk=16:CCD=2:RRD=6:RCD=12:RAS=28:RP=12:RC=40: CL=12:WL=4:CDLR=5:WR=12:nbkgrp=4:CCDL=3:RTPL=2 # DRAM timing parameters = {nbk:tCCD:tRRD:tRCD:tRAS:tRP:tRC:CL:WL:tCDLR:tWR:nbkgrp:tCCDL:tRTPL}
-rop_latency                          120 # ROP queue latency (default 85)
-dram_latency                         100 # DRAM latency (default 30)
-gpgpu_mem_addr_mapping dramid@8;00000000.00000000.00000000.00000000.0000RRRR.RRRRRRRR.BBBCCCCB.CCSSSSSS # mapping memory address to dram model {dramid@<start bit>;<memory address map>}
-gpgpu_mem_addr_test                    0 # run sweep test to check address mapping for aliased address
-gpgpu_mem_address_mask                    1 # 0 = old addressing mask, 1 = new addressing mask, 2 = new add. mask + flipped bank sel and chip sel bits
-gpuwattch_xml_file  gpuwattch_gtx480.xml # GPUWattch XML file
-power_simulation_enabled                    0 # Turn on power simulator (1=On, 0=Off)
-power_per_cycle_dump                    0 # Dump detailed power output each cycle
-power_trace_enabled                    0 # produce a file for the power trace (1=On, 0=Off)
-power_trace_zlevel                     6 # Compression level of the power trace output log (0=no comp, 9=highest)
-steady_power_levels_enabled                    0 # produce a file for the steady power levels (1=On, 0=Off)
-steady_state_definition                  8:4 # allowed deviation:number of samples
-gpgpu_max_cycle                        0 # terminates gpu simulation early (0 = no limit)
-gpgpu_max_insn                         0 # terminates gpu simulation early (0 = no limit)
-gpgpu_max_cta                          0 # terminates gpu simulation early (0 = no limit)
-gpgpu_runtime_stat             500000000 # display runtime statistics such as dram utilization {<freq>:<flag>}
-liveness_message_freq                    1 # Minimum number of seconds between simulation liveness messages (0 = always print)
-gpgpu_flush_l1_cache                    0 # Flush L1 cache at the end of each kernel call
-gpgpu_flush_l2_cache                    0 # Flush L2 cache at the end of each kernel call
-gpgpu_deadlock_detect                    1 # Stop the simulation at deadlock (1=on (default), 0=off)
-gpgpu_ptx_instruction_classification                    0 # if enabled will classify ptx instruction types per kernel (Max 255 kernels now)
-gpgpu_ptx_sim_mode                     0 # Select between Performance (default) or Functional simulation (1)
-gpgpu_clock_domains 730.0:730.0:730.0:950.0 # Clock Domain Frequencies in MhZ {<Core Clock>:<ICNT Clock>:<L2 Clock>:<DRAM Clock>}
-gpgpu_max_concurrent_kernel                    8 # maximum kernels that can run concurrently on GPU
-gpgpu_cflog_interval                    0 # Interval between each snapshot in control flow logger
-visualizer_enabled                     0 # Turn on visualizer output (1=On, 0=Off)
-visualizer_outputfile                 NULL # Specifies the output log file for visualizer
-visualizer_zlevel                      6 # Compression level of the visualizer output log (0=no comp, 9=highest)
-trace_enabled                          0 # Turn on traces
-trace_components                    none # comma seperated list of traces to enable. Complete list found in trace_streams.tup. Default none
-trace_sampling_core                    0 # The core which is printed using CORE_DPRINTF. Default 0
-trace_sampling_memory_partition                   -1 # The memory partition which is printed using MEMPART_DPRINTF. Default -1 (i.e. all)
-enable_ptx_file_line_stats                    0 # Turn on PTX source line statistic profiling. (1 = On)
-ptx_line_stats_filename gpgpu_inst_stats.txt # Output file for PTX source line statistics.
-save_embedded_ptx                      0 # saves ptx files embedded in binary as <n>.ptx
-keep                                   0 # keep intermediate files created by GPGPU-Sim when interfacing with external programs
-gpgpu_ptx_save_converted_ptxplus                    0 # Saved converted ptxplus to a file
-ptx_opcode_latency_int         4,13,4,5,145 # Opcode latencies for integers <ADD,MAX,MUL,MAD,DIV>Default 1,1,19,25,145
-ptx_opcode_latency_fp          4,13,4,5,39 # Opcode latencies for single precision floating points <ADD,MAX,MUL,MAD,DIV>Default 1,1,1,1,30
-ptx_opcode_latency_dp         8,19,8,8,330 # Opcode latencies for double precision floating points <ADD,MAX,MUL,MAD,DIV>Default 8,8,8,8,335
-ptx_opcode_initiation_int            1,2,2,1,8 # Opcode initiation intervals for integers <ADD,MAX,MUL,MAD,DIV>Default 1,1,4,4,32
-ptx_opcode_initiation_fp            1,2,1,1,4 # Opcode initiation intervals for single precision floating points <ADD,MAX,MUL,MAD,DIV>Default 1,1,1,1,5
-ptx_opcode_initiation_dp         8,16,8,8,130 # Opcode initiation intervals for double precision floating points <ADD,MAX,MUL,MAD,DIV>Default 8,8,8,8,130
DRAM Timing Options:
nbk                                    16 # number of banks
CCD                                     2 # column to column delay
RRD                                     6 # minimal delay between activation of rows in different banks
RCD                                    12 # row to column delay
RAS                                    28 # time needed to activate row
RP                                     12 # time needed to precharge (deactivate) row
RC                                     40 # row cycle time
CDLR                                    5 # switching from write to read (changes tWTR)
WR                                     12 # last data-in to row precharge
CL                                     12 # CAS latency
WL                                      4 # Write latency
nbkgrp                                  4 # number of bank groups
CCDL                                    3 # column to column delay between accesses to different bank groups
RTPL                                    2 # read to precharge delay between accesses to different bank groups
Total number of memory sub partition = 12
addr_dec_mask[CHIP]  = 0000000000000000 	high:64 low:0
addr_dec_mask[BK]    = 000000000000e100 	high:16 low:8
addr_dec_mask[ROW]   = 000000000fff0000 	high:28 low:16
addr_dec_mask[COL]   = 0000000000001eff 	high:13 low:0
addr_dec_mask[BURST] = 000000000000003f 	high:6 low:0
sub_partition_id_mask = 0000000000000100
GPGPU-Sim uArch: clock freqs: 730000000.000000:730000000.000000:730000000.000000:950000000.000000
GPGPU-Sim uArch: clock periods: 0.00000000136986301370:0.00000000136986301370:0.00000000136986301370:0.00000000105263157895
*** Initializing Memory Statistics ***
GPGPU-Sim uArch: interconnect node map (shaderID+MemID to icntID)
GPGPU-Sim uArch: Memory nodes ID start from index: 15
GPGPU-Sim uArch:    0   1   2   3   4
GPGPU-Sim uArch:    5   6   7   8   9
GPGPU-Sim uArch:   10  11  12  13  14
GPGPU-Sim uArch:   15  16  17  18  19
GPGPU-Sim uArch:   20  21  22  23  24
GPGPU-Sim uArch:   25  26
GPGPU-Sim uArch: interconnect node reverse map (icntID to shaderID+MemID)
GPGPU-Sim uArch: Memory nodes start from ID: 15
GPGPU-Sim uArch:    0   1   2   3   4
GPGPU-Sim uArch:    5   6   7   8   9
GPGPU-Sim uArch:   10  11  12  13  14
GPGPU-Sim uArch:   15  16  17  18  19
GPGPU-Sim uArch:   20  21  22  23  24
GPGPU-Sim uArch:   25  26
a6b1f441abe3fc096a7a99ee20b7925c  /home/z/Workspace/model_gpu_cache/build/corr_sim
GPGPU-Sim uArch: performance model initialization complete.
GPGPU-Sim PTX: __cudaRegisterFatBinary, fat_cubin_handle = 1, filename=correlation.cu
self exe links to: /home/z/Workspace/model_gpu_cache/build/corr_sim
Running md5sum using "md5sum /home/z/Workspace/model_gpu_cache/build/corr_sim "
Running cuobjdump using "$CUDA_INSTALL_PATH/bin/cuobjdump -ptx -elf -sass /home/z/Workspace/model_gpu_cache/build/corr_sim > _cuobjdump_complete_output_Dj8Eil"
Parsing file _cuobjdump_complete_output_Dj8Eil
######### cuobjdump parser ########
## Adding new section ELF
Adding arch: sm_20
Adding identifier: correlation.cu
## Adding new section PTX
Adding ptx filename: _cuobjdump_1.ptx
Adding arch: sm_20
Adding identifier: correlation.cu
Done parsing!!!
GPGPU-Sim PTX: __cudaRegisterFunction _Z11corr_kernelPfS_ : hostFun 0x0x401690, fat_cubin_handle = 1
GPGPU-Sim PTX: instruction assembly for function '_Z11mean_kernelPfS_'...   done.
GPGPU-Sim PTX: finding reconvergence points for '_Z11mean_kernelPfS_'...
GPGPU-Sim PTX: Finding dominators for '_Z11mean_kernelPfS_'...
GPGPU-Sim PTX: Finding immediate dominators for '_Z11mean_kernelPfS_'...
GPGPU-Sim PTX: Finding postdominators for '_Z11mean_kernelPfS_'...
GPGPU-Sim PTX: Finding immediate postdominators for '_Z11mean_kernelPfS_'...
GPGPU-Sim PTX: pre-decoding instructions for '_Z11mean_kernelPfS_'...
GPGPU-Sim PTX: reconvergence points for _Z11mean_kernelPfS_...
GPGPU-Sim PTX:  1 (potential) branch divergence @  PC=0x038 (_1.ptx:68) @%p1 bra $Lt_0_2050;
GPGPU-Sim PTX:    immediate post dominator      @  PC=0x0f8 (_1.ptx:99) exit;
GPGPU-Sim PTX:  2 (potential) branch divergence @  PC=0x0d8 (_1.ptx:92) @%p2 bra $Lt_0_3074;
GPGPU-Sim PTX:    immediate post dominator      @  PC=0x0e0 (_1.ptx:94) mov.f32 %f4, 0f4a442e10;     // 3.21421e+06
GPGPU-Sim PTX: ... end of reconvergence points for _Z11mean_kernelPfS_
GPGPU-Sim PTX: ... done pre-decoding instructions for '_Z11mean_kernelPfS_'.
GPGPU-Sim PTX: instruction assembly for function '_Z10std_kernelPfS_S_'...   done.
GPGPU-Sim PTX: finding reconvergence points for '_Z10std_kernelPfS_S_'...
GPGPU-Sim PTX: Finding dominators for '_Z10std_kernelPfS_S_'...
GPGPU-Sim PTX: Finding immediate dominators for '_Z10std_kernelPfS_S_'...
GPGPU-Sim PTX: Finding postdominators for '_Z10std_kernelPfS_S_'...
GPGPU-Sim PTX: Finding immediate postdominators for '_Z10std_kernelPfS_S_'...
GPGPU-Sim PTX: pre-decoding instructions for '_Z10std_kernelPfS_S_'...
GPGPU-Sim PTX: reconvergence points for _Z10std_kernelPfS_S_...
GPGPU-Sim PTX:  1 (potential) branch divergence @  PC=0x138 (_1.ptx:121) @%p1 bra $Lt_1_2818;
GPGPU-Sim PTX:    immediate post dominator      @  PC=0x250 (_1.ptx:165) exit;
GPGPU-Sim PTX:  2 (potential) branch divergence @  PC=0x200 (_1.ptx:150) @%p2 bra $Lt_1_3842;
GPGPU-Sim PTX:    immediate post dominator      @  PC=0x208 (_1.ptx:152) mov.f32 %f7, 0f4a442e10;     // 3.21421e+06
GPGPU-Sim PTX:  3 (potential) branch divergence @  PC=0x238 (_1.ptx:158) @!%p3 bra $Lt_1_4354;
GPGPU-Sim PTX:    immediate post dominator      @  PC=0x250 (_1.ptx:165) exit;
GPGPU-Sim PTX: ... end of reconvergence points for _Z10std_kernelPfS_S_
GPGPU-Sim PTX: ... done pre-decoding instructions for '_Z10std_kernelPfS_S_'.
GPGPU-Sim PTX: instruction assembly for function '_Z13reduce_kernelPfS_S_'...   done.
GPGPU-Sim PTX: finding reconvergence points for '_Z13reduce_kernelPfS_S_'...
GPGPU-Sim PTX: Finding dominators for '_Z13reduce_kernelPfS_S_'...
GPGPU-Sim PTX: Finding immediate dominators for '_Z13reduce_kernelPfS_S_'...
GPGPU-Sim PTX: Finding postdominators for '_Z13reduce_kernelPfS_S_'...
GPGPU-Sim PTX: Finding immediate postdominators for '_Z13reduce_kernelPfS_S_'...
GPGPU-Sim PTX: pre-decoding instructions for '_Z13reduce_kernelPfS_S_'...
GPGPU-Sim PTX: reconvergence points for _Z13reduce_kernelPfS_S_...
GPGPU-Sim PTX:  1 (potential) branch divergence @  PC=0x318 (_1.ptx:204) @%p1 bra $Lt_2_1538;
GPGPU-Sim PTX:    immediate post dominator      @  PC=0x3c8 (_1.ptx:230) exit;
GPGPU-Sim PTX: ... end of reconvergence points for _Z13reduce_kernelPfS_S_
GPGPU-Sim PTX: ... done pre-decoding instructions for '_Z13reduce_kernelPfS_S_'.
GPGPU-Sim PTX: instruction assembly for function '_Z11corr_kernelPfS_'...   done.
GPGPU-Sim PTX: finding reconvergence points for '_Z11corr_kernelPfS_'...
GPGPU-Sim PTX: Finding dominators for '_Z11corr_kernelPfS_'...
GPGPU-Sim PTX: Finding immediate dominators for '_Z11corr_kernelPfS_'...
GPGPU-Sim PTX: Finding postdominators for '_Z11corr_kernelPfS_'...
GPGPU-Sim PTX: Finding immediate postdominators for '_Z11corr_kernelPfS_'...
GPGPU-Sim PTX: pre-decoding instructions for '_Z11corr_kernelPfS_'...
GPGPU-Sim PTX: reconvergence points for _Z11corr_kernelPfS_...
GPGPU-Sim PTX:  1 (potential) branch divergence @  PC=0x408 (_1.ptx:251) @%p1 bra $Lt_3_3074;
GPGPU-Sim PTX:    immediate post dominator      @  PC=0x5e8 (_1.ptx:323) exit;
GPGPU-Sim PTX:  2 (potential) branch divergence @  PC=0x460 (_1.ptx:264) @%p2 bra $Lt_3_3586;
GPGPU-Sim PTX:    immediate post dominator      @  PC=0x5e8 (_1.ptx:323) exit;
GPGPU-Sim PTX:  3 (potential) branch divergence @  PC=0x598 (_1.ptx:309) @%p3 bra $Lt_3_4866;
GPGPU-Sim PTX:    immediate post dominator      @  PC=0x5a0 (_1.ptx:311) st.global.f32 [%rd13+4], %f2;
GPGPU-Sim PTX:  4 (potential) branch divergence @  PC=0x5e0 (_1.ptx:319) @%p4 bra $Lt_3_4098;
GPGPU-Sim PTX:    immediate post dominator      @  PC=0x5e8 (_1.ptx:323) exit;
GPGPU-Sim PTX: ... end of reconvergence points for _Z11corr_kernelPfS_
GPGPU-Sim PTX: ... done pre-decoding instructions for '_Z11corr_kernelPfS_'.
GPGPU-Sim PTX: finished parsing EMBEDDED .ptx file _1.ptx
Adding _cuobjdump_1.ptx with cubin handle 1
GPGPU-Sim PTX: extracting embedded .ptx to temporary file "_ptx_hTOtdb"
Running: cat _ptx_hTOtdb | sed 's/.version 1.5/.version 1.4/' | sed 's/, texmode_independent//' | sed 's/\(\.extern \.const\[1\] .b8 \w\+\)\[\]/\1\[1\]/' | sed 's/const\[.\]/const\[0\]/g' > _ptx2_LPBj80
GPGPU-Sim PTX: generating ptxinfo using "$CUDA_INSTALL_PATH/bin/ptxas --gpu-name=sm_20 -v _ptx2_LPBj80 --output-file  /dev/null 2> _ptx_hTOtdbinfo"
GPGPU-Sim PTX: Kernel '_Z11corr_kernelPfS_' : regs=21, lmem=0, smem=0, cmem=48
GPGPU-Sim PTX: Kernel '_Z13reduce_kernelPfS_S_' : regs=12, lmem=0, smem=0, cmem=68
GPGPU-Sim PTX: Kernel '_Z10std_kernelPfS_S_' : regs=12, lmem=0, smem=0, cmem=80
GPGPU-Sim PTX: Kernel '_Z11mean_kernelPfS_' : regs=12, lmem=0, smem=0, cmem=60
GPGPU-Sim PTX: removing ptxinfo using "rm -f _ptx_hTOtdb _ptx2_LPBj80 _ptx_hTOtdbinfo"
GPGPU-Sim PTX: loading globals with explicit initializers... 
GPGPU-Sim PTX: finished loading globals (0 bytes total).
GPGPU-Sim PTX: loading constants with explicit initializers...  done.
GPGPU-Sim PTX: __cudaRegisterFunction _Z13reduce_kernelPfS_S_ : hostFun 0x0x401770, fat_cubin_handle = 1
GPGPU-Sim PTX: __cudaRegisterFunction _Z10std_kernelPfS_S_ : hostFun 0x0x4016f0, fat_cubin_handle = 1
GPGPU-Sim PTX: __cudaRegisterFunction _Z11mean_kernelPfS_ : hostFun 0x0x401630, fat_cubin_handle = 1

GPGPU-Sim PTX: cudaLaunch for 0x0x401630 (mode=performance simulation) on stream 0
GPGPU-Sim PTX: pushing kernel '_Z11mean_kernelPfS_' to stream 0, gridDim= (8,1,1) blockDim = (256,1,1) 
####  CUstream_st::push: Start pushing kernel: mean_kernel  ####
kernel '_Z11mean_kernelPfS_' transfer to GPU hardware scheduler
GPGPU-Sim uArch: Shader 1 bind to kernel 1 '_Z11mean_kernelPfS_'
GPGPU-Sim uArch: CTA/core = 6, limited by: threads
GPGPU-Sim uArch: core:  1, cta: 0 initialized @(1,0)
GPGPU-Sim uArch: Shader 2 bind to kernel 1 '_Z11mean_kernelPfS_'
GPGPU-Sim uArch: core:  2, cta: 0 initialized @(1,0)
GPGPU-Sim uArch: Shader 3 bind to kernel 1 '_Z11mean_kernelPfS_'
GPGPU-Sim uArch: core:  3, cta: 0 initialized @(1,0)
GPGPU-Sim uArch: Shader 4 bind to kernel 1 '_Z11mean_kernelPfS_'
GPGPU-Sim uArch: core:  4, cta: 0 initialized @(1,0)
GPGPU-Sim uArch: Shader 5 bind to kernel 1 '_Z11mean_kernelPfS_'
GPGPU-Sim uArch: core:  5, cta: 0 initialized @(1,0)
GPGPU-Sim uArch: Shader 6 bind to kernel 1 '_Z11mean_kernelPfS_'
GPGPU-Sim uArch: core:  6, cta: 0 initialized @(1,0)
GPGPU-Sim uArch: Shader 7 bind to kernel 1 '_Z11mean_kernelPfS_'
GPGPU-Sim uArch: core:  7, cta: 0 initialized @(1,0)
GPGPU-Sim uArch: Shader 8 bind to kernel 1 '_Z11mean_kernelPfS_'
GPGPU-Sim uArch: core:  8, cta: 0 initialized @(1,0)
GPGPU-Sim uArch: Shader 3 finished CTA #0 (646821,0), 0 CTAs running
GPGPU-Sim uArch: Shader 3 empty (release kernel 1 '_Z11mean_kernelPfS_').
GPGPU-Sim uArch: Shader 4 finished CTA #0 (646990,0), 0 CTAs running
GPGPU-Sim uArch: Shader 4 empty (release kernel 1 '_Z11mean_kernelPfS_').
GPGPU-Sim uArch: Shader 7 finished CTA #0 (647228,0), 0 CTAs running
GPGPU-Sim uArch: Shader 7 empty (release kernel 1 '_Z11mean_kernelPfS_').
GPGPU-Sim uArch: Shader 2 finished CTA #0 (647359,0), 0 CTAs running
GPGPU-Sim uArch: Shader 2 empty (release kernel 1 '_Z11mean_kernelPfS_').
GPGPU-Sim uArch: Shader 6 finished CTA #0 (647479,0), 0 CTAs running
GPGPU-Sim uArch: Shader 6 empty (release kernel 1 '_Z11mean_kernelPfS_').
GPGPU-Sim uArch: Shader 8 finished CTA #0 (647518,0), 0 CTAs running
GPGPU-Sim uArch: Shader 8 empty (release kernel 1 '_Z11mean_kernelPfS_').
GPGPU-Sim uArch: Shader 1 finished CTA #0 (647552,0), 0 CTAs running
GPGPU-Sim uArch: Shader 1 empty (release kernel 1 '_Z11mean_kernelPfS_').
GPGPU-Sim uArch: Shader 5 finished CTA #0 (648894,0), 0 CTAs running
GPGPU-Sim uArch: Shader 5 empty (release kernel 1 '_Z11mean_kernelPfS_').
GPGPU-Sim uArch: GPU detected kernel '_Z11mean_kernelPfS_' finished on shader 5.
kernel_name = _Z11mean_kernelPfS_ 
kernel_launch_uid = 1 
gpu_sim_cycle = 648895
gpu_sim_insn = 29407232
gpu_ipc =      45.3189
gpu_tot_sim_cycle = 648895
gpu_tot_sim_insn = 29407232
gpu_tot_ipc =      45.3189
gpu_tot_issued_cta = 0
gpu_stall_dramfull = 110
gpu_stall_icnt2sh    = 15013
gpu_total_sim_rate=217831

========= Core cache stats =========
L1I_cache:
	L1I_total_cache_accesses = 525248
	L1I_total_cache_misses = 128
	L1I_total_cache_miss_rate = 0.0002
	L1I_total_cache_pending_hits = 0
	L1I_total_cache_reservation_fails = 0
L1D_cache:
	L1D_cache_core[0]: Access = 0, Miss = 0, Miss_rate = -nan, Pending_hits = 0, Reservation_fails = 0
	L1D_cache_core[1]: Access = 65056, Miss = 51168, Miss_rate = 0.787, Pending_hits = 12932, Reservation_fails = 107
	L1D_cache_core[2]: Access = 65056, Miss = 51168, Miss_rate = 0.787, Pending_hits = 13501, Reservation_fails = 80
	L1D_cache_core[3]: Access = 65056, Miss = 51168, Miss_rate = 0.787, Pending_hits = 13293, Reservation_fails = 69
	L1D_cache_core[4]: Access = 65056, Miss = 51168, Miss_rate = 0.787, Pending_hits = 12964, Reservation_fails = 152
	L1D_cache_core[5]: Access = 65056, Miss = 51168, Miss_rate = 0.787, Pending_hits = 12352, Reservation_fails = 67
	L1D_cache_core[6]: Access = 65056, Miss = 51168, Miss_rate = 0.787, Pending_hits = 12995, Reservation_fails = 89
	L1D_cache_core[7]: Access = 65056, Miss = 51168, Miss_rate = 0.787, Pending_hits = 12803, Reservation_fails = 99
	L1D_cache_core[8]: Access = 65056, Miss = 51168, Miss_rate = 0.787, Pending_hits = 13006, Reservation_fails = 64
	L1D_cache_core[9]: Access = 0, Miss = 0, Miss_rate = -nan, Pending_hits = 0, Reservation_fails = 0
	L1D_cache_core[10]: Access = 0, Miss = 0, Miss_rate = -nan, Pending_hits = 0, Reservation_fails = 0
	L1D_cache_core[11]: Access = 0, Miss = 0, Miss_rate = -nan, Pending_hits = 0, Reservation_fails = 0
	L1D_cache_core[12]: Access = 0, Miss = 0, Miss_rate = -nan, Pending_hits = 0, Reservation_fails = 0
	L1D_cache_core[13]: Access = 0, Miss = 0, Miss_rate = -nan, Pending_hits = 0, Reservation_fails = 0
	L1D_cache_core[14]: Access = 0, Miss = 0, Miss_rate = -nan, Pending_hits = 0, Reservation_fails = 0
	L1D_total_cache_accesses = 520448
	L1D_total_cache_misses = 409344
	L1D_total_cache_miss_rate = 0.7865
	L1D_total_cache_pending_hits = 103846
	L1D_total_cache_reservation_fails = 727
	L1D_cache_data_port_util = 0.001
	L1D_cache_fill_port_util = 0.028
L1C_cache:
	L1C_total_cache_accesses = 128
	L1C_total_cache_misses = 64
	L1C_total_cache_miss_rate = 0.5000
	L1C_total_cache_pending_hits = 0
	L1C_total_cache_reservation_fails = 0
L1T_cache:
	L1T_total_cache_accesses = 0
	L1T_total_cache_misses = 0
	L1T_total_cache_pending_hits = 0
	L1T_total_cache_reservation_fails = 0

Total_core_cache_stats:
	Total_core_cache_stats_breakdown[GLOBAL_ACC_R][HIT] = 7258
	Total_core_cache_stats_breakdown[GLOBAL_ACC_R][HIT_RESERVED] = 103846
	Total_core_cache_stats_breakdown[GLOBAL_ACC_R][MISS] = 146944
	Total_core_cache_stats_breakdown[GLOBAL_ACC_R][RESERVATION_FAIL] = 616
	Total_core_cache_stats_breakdown[CONST_ACC_R][HIT] = 64
	Total_core_cache_stats_breakdown[CONST_ACC_R][MISS] = 64
	Total_core_cache_stats_breakdown[GLOBAL_ACC_W][MISS] = 262400
	Total_core_cache_stats_breakdown[GLOBAL_ACC_W][RESERVATION_FAIL] = 111
	Total_core_cache_stats_breakdown[INST_ACC_R][HIT] = 525120
	Total_core_cache_stats_breakdown[INST_ACC_R][MISS] = 128
Shader 0 warp_id issue ditsribution:
warp_id:

distro:

gpgpu_n_tot_thrd_icount = 29411328
gpgpu_n_tot_w_icount = 919104
gpgpu_n_stall_shd_mem = 258903
gpgpu_n_mem_read_local = 0
gpgpu_n_mem_write_local = 0
gpgpu_n_mem_read_global = 146944
gpgpu_n_mem_write_global = 262400
gpgpu_n_mem_texture = 0
gpgpu_n_mem_const = 8
gpgpu_n_load_insn  = 4194304
gpgpu_n_store_insn = 4198400
gpgpu_n_shmem_insn = 0
gpgpu_n_tex_insn = 0
gpgpu_n_const_mem_insn = 0
gpgpu_n_param_mem_insn = 4096
gpgpu_n_shmem_bkconflict = 0
gpgpu_n_cache_bkconflict = 0
gpgpu_n_intrawarp_mshr_merge = 0
gpgpu_n_cmem_portconflict = 0
gpgpu_stall_shd_mem[c_mem][bk_conf] = 0
gpgpu_stall_shd_mem[c_mem][mshr_rc] = 0
gpgpu_stall_shd_mem[c_mem][icnt_rc] = 0
gpgpu_stall_shd_mem[c_mem][data_port_stall] = 0
gpgpu_stall_shd_mem[t_mem][mshr_rc] = 0
gpgpu_stall_shd_mem[t_mem][icnt_rc] = 0
gpgpu_stall_shd_mem[t_mem][data_port_stall] = 0
gpgpu_stall_shd_mem[s_mem][bk_conf] = 0
gpgpu_stall_shd_mem[gl_mem][bk_conf] = 0
gpgpu_stall_shd_mem[gl_mem][coal_stall] = 258903
gpgpu_stall_shd_mem[gl_mem][data_port_stall] = 0
gpgpu_stall_shd_mem[g_mem_ld][mshr_rc] = 0
gpgpu_stall_shd_mem[g_mem_ld][icnt_rc] = 0
gpgpu_stall_shd_mem[g_mem_ld][wb_icnt_rc] = 0
gpgpu_stall_shd_mem[g_mem_ld][wb_rsrv_fail] = 0
gpgpu_stall_shd_mem[g_mem_st][mshr_rc] = 0
gpgpu_stall_shd_mem[g_mem_st][icnt_rc] = 0
gpgpu_stall_shd_mem[g_mem_st][wb_icnt_rc] = 0
gpgpu_stall_shd_mem[g_mem_st][wb_rsrv_fail] = 0
gpgpu_stall_shd_mem[l_mem_ld][mshr_rc] = 0
gpgpu_stall_shd_mem[l_mem_ld][icnt_rc] = 0
gpgpu_stall_shd_mem[l_mem_ld][wb_icnt_rc] = 0
gpgpu_stall_shd_mem[l_mem_ld][wb_rsrv_fail] = 0
gpgpu_stall_shd_mem[l_mem_st][mshr_rc] = 0
gpgpu_stall_shd_mem[l_mem_st][icnt_rc] = 0
gpgpu_stall_shd_mem[l_mem_ld][wb_icnt_rc] = 0
gpgpu_stall_shd_mem[l_mem_ld][wb_rsrv_fail] = 0
gpu_reg_bank_conflict_stalls = 0
Warp Occupancy Distribution:
Stall:2450	W0_Idle:11794	W0_Scoreboard:9426364	W1:0	W2:0	W3:0	W4:0	W5:0	W6:0	W7:0	W8:0	W9:0	W10:0	W11:0	W12:0	W13:0	W14:0	W15:0	W16:0	W17:0	W18:0	W19:0	W20:0	W21:0	W22:0	W23:0	W24:0	W25:0	W26:0	W27:0	W28:0	W29:0	W30:0	W31:0	W32:919104
traffic_breakdown_coretomem[CONST_ACC_R] = 64 {8:8,}
traffic_breakdown_coretomem[GLOBAL_ACC_R] = 1175552 {8:146944,}
traffic_breakdown_coretomem[GLOBAL_ACC_W] = 23091200 {40:131200,136:131200,}
traffic_breakdown_coretomem[INST_ACC_R] = 128 {8:16,}
traffic_breakdown_memtocore[CONST_ACC_R] = 576 {72:8,}
traffic_breakdown_memtocore[GLOBAL_ACC_R] = 19984384 {136:146944,}
traffic_breakdown_memtocore[GLOBAL_ACC_W] = 2099200 {8:262400,}
traffic_breakdown_memtocore[INST_ACC_R] = 2176 {136:16,}
maxmrqlatency = 131 
maxdqlatency = 0 
maxmflatency = 472 
max_icnt2mem_latency = 94 
max_icnt2sh_latency = 648894 
mrq_lat_table:110155 	14912 	2941 	1322 	1861 	65 	73 	2 	0 	0 	0 	0 	0 	0 	0 	0 	0 	0 	0 	0 	0 	0 	0 	0 	0 	0 	0 	0 	0 	0 	0 	0 	
dq_lat_table:0 	0 	0 	0 	0 	0 	0 	0 	0 	0 	0 	0 	0 	0 	0 	0 	0 	0 	0 	0 	0 	0 	0 	0 	0 	0 	0 	0 	0 	0 	0 	0 	
mf_lat_table:0 	0 	0 	0 	0 	0 	0 	275432 	133920 	0 	0 	0 	0 	0 	0 	0 	0 	0 	0 	0 	0 	0 	0 	0 	0 	0 	0 	0 	0 	0 	0 	0 	
icnt2mem_lat_table:0 	0 	0 	189805 	189375 	30021 	167 	0 	0 	0 	0 	0 	0 	0 	0 	0 	0 	0 	0 	0 	0 	0 	0 	0 	
icnt2sh_lat_table:0 	0 	0 	83494 	62190 	1267 	1 	0 	0 	81 	310 	840 	1658 	3342 	6740 	13278 	26552 	53253 	106365 	49981 	0 	0 	0 	0 	
mf_lat_pw_table:0 	0 	0 	0 	0 	0 	0 	0 	0 	0 	0 	0 	0 	0 	0 	0 	0 	0 	0 	0 	0 	0 	0 	0 	0 	0 	0 	0 	0 	0 	0 	0 	
maximum concurrent accesses to same row:
dram[0]:        32        32        32        32        32        32        32        32        32        32        32        32        32        32        32        32 
dram[1]:        32        32        32        32        32        32        32        32        32        32        32        32        32        32        32        32 
dram[2]:        32        32        32        32        32        32        32        32        32        32        32        32        32        32        32        32 
dram[3]:        32        32        32        32        32        32        32        32        32        32        32        32        32        32        32        32 
dram[4]:        32        32        32        32        32        32        32        32        32        32        32        32        32        32        32        32 
dram[5]:        32        32        32        32        32        32        32        32        32        32        32        32        32        32        32        32 
maximum service time to same row:
dram[0]:     15400     15393     15480     15547     15581     15541     15432     15566     15540     15528     15440     15542     15466     15548     15407     15447 
dram[1]:     15503     15382     15452     15400     15461     15376     15442     15411     15518     15426     15511     15500     15486     15486     15550     15471 
dram[2]:     15432     15456     15400     15380     15449     15420     15430     15426     15546     15432     15681     15473     15419     15549     15386     15464 
dram[3]:     15519     15459     15558     15439     15456     15401     15449     15423     15472     15419     15517     15463     15583     15502     15594     15455 
dram[4]:     15506     15442     15466     15408     15426     15401     15463     15419     15461     15403     15524     15462     15577     15504     15571     15482 
dram[5]:     15510     15489     15595     15506     15552     15446     15545     15368     15579     15373     15511     15433     15386     15512     15419     15448 
average row accesses per activate:
dram[0]: 29.543478 31.488373 32.000000 32.000000 31.348837 31.395350 32.000000 32.000000 32.000000 32.000000 32.000000 32.000000 31.636364 31.681818 32.000000 32.000000 
dram[1]: 31.534883 31.488373 32.000000 32.000000 31.348837 31.395350 32.000000 32.000000 32.000000 32.000000 32.000000 32.000000 31.681818 31.590910 32.000000 32.000000 
dram[2]: 31.534883 31.488373 32.000000 32.000000 31.348837 31.395350 32.000000 32.000000 32.000000 32.000000 32.000000 32.000000 31.681818 31.545454 32.000000 32.000000 
dram[3]: 31.534883 31.488373 32.000000 32.000000 31.348837 31.395350 32.000000 32.000000 32.000000 32.000000 32.000000 32.000000 31.681818 31.545454 32.000000 32.000000 
dram[4]: 31.511627 31.488373 32.000000 32.000000 31.395350 31.395350 32.000000 32.000000 32.000000 32.000000 32.000000 32.000000 31.681818 31.545454 32.000000 32.000000 
dram[5]: 31.488373 31.488373 32.000000 32.000000 31.395350 31.395350 32.000000 32.000000 32.000000 32.000000 32.000000 32.000000 31.681818 31.659090 32.000000 32.000000 
average row locality = 131331/4131 = 31.791576
number of total memory accesses made:
dram[0]:         0         0         0         0         0         0         0         0         0         0         0         0         0         0         0         0 
dram[1]:         0         0         0         0         0         0         0         0         0         0         0         0         0         0         0         0 
dram[2]:         0         0         0         0         0         0         0         0         0         0         0         0         0         0         0         0 
dram[3]:         0         0         0         0         0         0         0         0         0         0         0         0         0         0         0         0 
dram[4]:         0         0         0         0         0         0         0         0         0         0         0         0         0         0         0         0 
dram[5]:         0         0         0         0         0         0         0         0         0         0         0         0         0         0         0         0 
total accesses: 0
min_bank_accesses = 0!
min_chip_accesses = 0!
number of total read accesses:
dram[0]:      1359      1354      1344      1344      1348      1350      1376      1376      1376      1376      1376      1376      1382      1382      1376      1376 
dram[1]:      1356      1354      1344      1344      1348      1350      1376      1376      1376      1376      1376      1376      1382      1381      1376      1376 
dram[2]:      1356      1354      1344      1344      1348      1350      1376      1376      1376      1376      1376      1376      1382      1380      1376      1376 
dram[3]:      1356      1354      1344      1344      1348      1350      1376      1376      1376      1376      1376      1376      1382      1380      1376      1376 
dram[4]:      1355      1354      1344      1344      1350      1350      1376      1376      1376      1376      1376      1376      1382      1380      1376      1376 
dram[5]:      1354      1354      1344      1344      1350      1350      1376      1376      1376      1376      1376      1376      1382      1382      1376      1376 
total reads: 131205
bank skew: 1382/1344 = 1.03
chip skew: 21871/21866 = 1.00
number of total write accesses:
dram[0]:         0         0         0         0         0         0         0         0         0         0         0         0        10        12         0         0 
dram[1]:         0         0         0         0         0         0         0         0         0         0         0         0        12         9         0         0 
dram[2]:         0         0         0         0         0         0         0         0         0         0         0         0        12         8         0         0 
dram[3]:         0         0         0         0         0         0         0         0         0         0         0         0        12         8         0         0 
dram[4]:         0         0         0         0         0         0         0         0         0         0         0         0        12         8         0         0 
dram[5]:         0         0         0         0         0         0         0         0         0         0         0         0        12        11         0         0 
total reads: 126
min_bank_accesses = 0!
chip skew: 23/20 = 1.15
average mf latency per bank:
dram[0]:        295       298       296       299       296       297       300       299       298       298       296       295      2953      2961       297       296
dram[1]:        297       294       299       297       297       295       298       299       295       299       295       296      2954      2300       298       297
dram[2]:        297       295       299       296       296       296       298       299       299       298       295       295      2954      2060       295       297
dram[3]:        294       298       296       299       296       296       299       297       299       296       297       294      2957      2059       297       296
dram[4]:        295       297       296       299       296       296       299       299       298       298       296       294      2950      2066       296       294
dram[5]:        298       295       300       297       296       295       297       299       295       299       294       296      2949      2731       297       297
maximum mf latency per bank:
dram[0]:        326       318       327       325       333       328       330       341       326       339       318       329       472       438       342       314
dram[1]:        314       324       322       315       315       321       341       368       316       337       323       321       427       399       318       330
dram[2]:        319       326       331       321       323       331       320       347       312       330       329       321       449       354       324       333
dram[3]:        314       322       322       327       320       321       334       337       339       330       325       309       428       397       321       324
dram[4]:        316       316       329       320       337       333       329       323       335       344       324       318       406       411       325       315
dram[5]:        318       332       332       325       337       328       328       335       326       327       317       330       425       437       329       327
Memory Partition 0: 
Cache L2_bank_000:
MSHR contents

Cache L2_bank_001:
MSHR contents

In Dram Latency Queue (total = 0): 
DRAM[0]: 16 bks, busW=4 BL=8 CL=12, tRRD=2 tCCD=6, tRCD=12 tRAS=28 tRP=12 tRC=40
n_cmd=844452 n_nop=799312 n_act=691 n_pre=675 n_req=21893 n_rd=43742 n_write=32 bw_util=0.1037
n_activity=268759 dram_eff=0.3257
bk0: 2718a 837138i bk1: 2708a 836682i bk2: 2688a 837239i bk3: 2688a 836710i bk4: 2696a 837096i bk5: 2700a 836553i bk6: 2752a 837035i bk7: 2752a 836323i bk8: 2752a 837146i bk9: 2752a 836504i bk10: 2752a 837112i bk11: 2752a 836534i bk12: 2764a 836791i bk13: 2764a 836243i bk14: 2752a 837026i bk15: 2752a 836477i 
dram_util_bins: 0 0 0 0 0 0 0 0 0 0
dram_eff_bins: 0 0 0 0 0 0 0 0 0 0
mrqq: max=13 avg=0.0251796
Memory Partition 1: 
Cache L2_bank_002:
MSHR contents

Cache L2_bank_003:
MSHR contents

In Dram Latency Queue (total = 0): 
DRAM[1]: 16 bks, busW=4 BL=8 CL=12, tRRD=2 tCCD=6, tRCD=12 tRAS=28 tRP=12 tRC=40
n_cmd=844452 n_nop=799327 n_act=688 n_pre=672 n_req=21888 n_rd=43734 n_write=31 bw_util=0.1037
n_activity=268874 dram_eff=0.3255
bk0: 2712a 837271i bk1: 2708a 836451i bk2: 2688a 837211i bk3: 2688a 836588i bk4: 2696a 837171i bk5: 2700a 836598i bk6: 2752a 837015i bk7: 2752a 836327i bk8: 2752a 837116i bk9: 2752a 836639i bk10: 2752a 837083i bk11: 2752a 836447i bk12: 2764a 836765i bk13: 2762a 836265i bk14: 2752a 837009i bk15: 2752a 836356i 
dram_util_bins: 0 0 0 0 0 0 0 0 0 0
dram_eff_bins: 0 0 0 0 0 0 0 0 0 0
mrqq: max=15 avg=0.0244691
Memory Partition 2: 
Cache L2_bank_004:
MSHR contents

Cache L2_bank_005:
MSHR contents

In Dram Latency Queue (total = 0): 
DRAM[2]: 16 bks, busW=4 BL=8 CL=12, tRRD=2 tCCD=6, tRCD=12 tRAS=28 tRP=12 tRC=40
n_cmd=844452 n_nop=799330 n_act=688 n_pre=672 n_req=21886 n_rd=43732 n_write=30 bw_util=0.1036
n_activity=268525 dram_eff=0.3259
bk0: 2712a 837225i bk1: 2708a 836614i bk2: 2688a 837223i bk3: 2688a 836736i bk4: 2696a 837165i bk5: 2700a 836671i bk6: 2752a 836981i bk7: 2752a 836285i bk8: 2752a 837047i bk9: 2752a 836533i bk10: 2752a 837021i bk11: 2752a 836451i bk12: 2764a 836795i bk13: 2760a 836261i bk14: 2752a 837118i bk15: 2752a 836491i 
dram_util_bins: 0 0 0 0 0 0 0 0 0 0
dram_eff_bins: 0 0 0 0 0 0 0 0 0 0
mrqq: max=16 avg=0.0251725
Memory Partition 3: 
Cache L2_bank_006:
MSHR contents

Cache L2_bank_007:
MSHR contents

In Dram Latency Queue (total = 0): 
DRAM[3]: 16 bks, busW=4 BL=8 CL=12, tRRD=2 tCCD=6, tRCD=12 tRAS=28 tRP=12 tRC=40
n_cmd=844452 n_nop=799330 n_act=688 n_pre=672 n_req=21886 n_rd=43732 n_write=30 bw_util=0.1036
n_activity=269314 dram_eff=0.325
bk0: 2712a 837213i bk1: 2708a 836657i bk2: 2688a 837220i bk3: 2688a 836659i bk4: 2696a 837183i bk5: 2700a 836672i bk6: 2752a 836999i bk7: 2752a 836481i bk8: 2752a 837039i bk9: 2752a 836476i bk10: 2752a 837076i bk11: 2752a 836453i bk12: 2764a 836734i bk13: 2760a 836060i bk14: 2752a 837034i bk15: 2752a 836536i 
dram_util_bins: 0 0 0 0 0 0 0 0 0 0
dram_eff_bins: 0 0 0 0 0 0 0 0 0 0
mrqq: max=15 avg=0.0238853
Memory Partition 4: 
Cache L2_bank_008:
MSHR contents

Cache L2_bank_009:
MSHR contents

In Dram Latency Queue (total = 0): 
DRAM[4]: 16 bks, busW=4 BL=8 CL=12, tRRD=2 tCCD=6, tRCD=12 tRAS=28 tRP=12 tRC=40
n_cmd=844452 n_nop=799328 n_act=688 n_pre=672 n_req=21887 n_rd=43734 n_write=30 bw_util=0.1037
n_activity=269091 dram_eff=0.3253
bk0: 2710a 837233i bk1: 2708a 836693i bk2: 2688a 837218i bk3: 2688a 836651i bk4: 2700a 837141i bk5: 2700a 836549i bk6: 2752a 836974i bk7: 2752a 836193i bk8: 2752a 837142i bk9: 2752a 836529i bk10: 2752a 837053i bk11: 2752a 836420i bk12: 2764a 836796i bk13: 2760a 836300i bk14: 2752a 837059i bk15: 2752a 836494i 
dram_util_bins: 0 0 0 0 0 0 0 0 0 0
dram_eff_bins: 0 0 0 0 0 0 0 0 0 0
mrqq: max=16 avg=0.0238545
Memory Partition 5: 
Cache L2_bank_010:
MSHR contents

Cache L2_bank_011:
MSHR contents

In Dram Latency Queue (total = 0): 
DRAM[5]: 16 bks, busW=4 BL=8 CL=12, tRRD=2 tCCD=6, tRCD=12 tRAS=28 tRP=12 tRC=40
n_cmd=844452 n_nop=799321 n_act=688 n_pre=672 n_req=21891 n_rd=43736 n_write=35 bw_util=0.1037
n_activity=269747 dram_eff=0.3245
bk0: 2708a 837248i bk1: 2708a 836694i bk2: 2688a 837228i bk3: 2688a 836667i bk4: 2700a 837207i bk5: 2700a 836628i bk6: 2752a 836914i bk7: 2752a 836307i bk8: 2752a 837091i bk9: 2752a 836569i bk10: 2752a 836983i bk11: 2752a 836454i bk12: 2764a 836777i bk13: 2764a 835996i bk14: 2752a 837035i bk15: 2752a 836529i 
dram_util_bins: 0 0 0 0 0 0 0 0 0 0
dram_eff_bins: 0 0 0 0 0 0 0 0 0 0
mrqq: max=16 avg=0.0249227

========= L2 cache stats =========
L2_cache_bank[0]: Access = 36872, Miss = 10937, Miss_rate = 0.297, Pending_hits = 673, Reservation_fails = 341
L2_cache_bank[1]: Access = 36848, Miss = 10934, Miss_rate = 0.297, Pending_hits = 615, Reservation_fails = 0
L2_cache_bank[2]: Access = 36848, Miss = 10934, Miss_rate = 0.297, Pending_hits = 647, Reservation_fails = 0
L2_cache_bank[3]: Access = 30698, Miss = 10933, Miss_rate = 0.356, Pending_hits = 632, Reservation_fails = 0
L2_cache_bank[4]: Access = 36840, Miss = 10934, Miss_rate = 0.297, Pending_hits = 609, Reservation_fails = 0
L2_cache_bank[5]: Access = 28640, Miss = 10932, Miss_rate = 0.382, Pending_hits = 676, Reservation_fails = 0
L2_cache_bank[6]: Access = 36848, Miss = 10934, Miss_rate = 0.297, Pending_hits = 637, Reservation_fails = 0
L2_cache_bank[7]: Access = 28648, Miss = 10932, Miss_rate = 0.382, Pending_hits = 656, Reservation_fails = 0
L2_cache_bank[8]: Access = 36848, Miss = 10935, Miss_rate = 0.297, Pending_hits = 679, Reservation_fails = 0
L2_cache_bank[9]: Access = 28648, Miss = 10932, Miss_rate = 0.382, Pending_hits = 608, Reservation_fails = 0
L2_cache_bank[10]: Access = 36840, Miss = 10934, Miss_rate = 0.297, Pending_hits = 653, Reservation_fails = 0
L2_cache_bank[11]: Access = 34790, Miss = 10934, Miss_rate = 0.314, Pending_hits = 629, Reservation_fails = 0
L2_total_cache_accesses = 409368
L2_total_cache_misses = 131205
L2_total_cache_miss_rate = 0.3205
L2_total_cache_pending_hits = 7714
L2_total_cache_reservation_fails = 341
L2_total_cache_breakdown:
	L2_cache_stats_breakdown[GLOBAL_ACC_R][HIT] = 8163
	L2_cache_stats_breakdown[GLOBAL_ACC_R][HIT_RESERVED] = 7644
	L2_cache_stats_breakdown[GLOBAL_ACC_R][MISS] = 131137
	L2_cache_stats_breakdown[CONST_ACC_R][HIT] = 4
	L2_cache_stats_breakdown[CONST_ACC_R][HIT_RESERVED] = 3
	L2_cache_stats_breakdown[CONST_ACC_R][MISS] = 1
	L2_cache_stats_breakdown[CONST_ACC_R][RESERVATION_FAIL] = 109
	L2_cache_stats_breakdown[GLOBAL_ACC_W][HIT] = 262274
	L2_cache_stats_breakdown[GLOBAL_ACC_W][HIT_RESERVED] = 61
	L2_cache_stats_breakdown[GLOBAL_ACC_W][MISS] = 65
	L2_cache_stats_breakdown[INST_ACC_R][HIT] = 8
	L2_cache_stats_breakdown[INST_ACC_R][HIT_RESERVED] = 6
	L2_cache_stats_breakdown[INST_ACC_R][MISS] = 2
	L2_cache_stats_breakdown[INST_ACC_R][RESERVATION_FAIL] = 232
L2_cache_data_port_util = 0.088
L2_cache_fill_port_util = 0.067

icnt_total_pkts_mem_to_simt=997224
icnt_total_pkts_simt_to_mem=1065368
LD_mem_lat_dist  0 0 0 0 0 0 0 0 0 0 0 0 0 0 0 0 0 0 0 0 0 0 0 0 0 0 0
ST_mem_lat_dist  0 0 0 0 0 0 0 0 0 0 0 0 0 0 0 0 0 0 0 0 0 0 0 0 0 0 0
----------------------------Interconnect-DETAILS--------------------------------
Class 0:
Packet latency average = 12.2843
	minimum = 6
	maximum = 65
Network latency average = 10.6083
	minimum = 6
	maximum = 56
Slowest packet = 387
Flit latency average = 9.24828
	minimum = 6
	maximum = 53
Slowest flit = 697837
Fragmentation average = 0
	minimum = 0
	maximum = 0
Injected packet rate average = 0.0467311
	minimum = 0 (at node 0)
	maximum = 0.0788587 (at node 1)
Accepted packet rate average = 0.0467311
	minimum = 0 (at node 0)
	maximum = 0.0788587 (at node 1)
Injected flit rate average = 0.117727
	minimum = 0 (at node 0)
	maximum = 0.205227 (at node 1)
Accepted flit rate average= 0.117727
	minimum = 0 (at node 0)
	maximum = 0.1921 (at node 1)
Injected packet length average = 2.51924
Accepted packet length average = 2.51924
Total in-flight flits = 0 (0 measured)
====== Overall Traffic Statistics ======
====== Traffic class 0 ======
Packet latency average = 12.2843 (1 samples)
	minimum = 6 (1 samples)
	maximum = 65 (1 samples)
Network latency average = 10.6083 (1 samples)
	minimum = 6 (1 samples)
	maximum = 56 (1 samples)
Flit latency average = 9.24828 (1 samples)
	minimum = 6 (1 samples)
	maximum = 53 (1 samples)
Fragmentation average = 0 (1 samples)
	minimum = 0 (1 samples)
	maximum = 0 (1 samples)
Injected packet rate average = 0.0467311 (1 samples)
	minimum = 0 (1 samples)
	maximum = 0.0788587 (1 samples)
Accepted packet rate average = 0.0467311 (1 samples)
	minimum = 0 (1 samples)
	maximum = 0.0788587 (1 samples)
Injected flit rate average = 0.117727 (1 samples)
	minimum = 0 (1 samples)
	maximum = 0.205227 (1 samples)
Accepted flit rate average = 0.117727 (1 samples)
	minimum = 0 (1 samples)
	maximum = 0.1921 (1 samples)
Injected packet size average = 2.51924 (1 samples)
Accepted packet size average = 2.51924 (1 samples)
Hops average = 1 (1 samples)
----------------------------END-of-Interconnect-DETAILS-------------------------


gpgpu_simulation_time = 0 days, 0 hrs, 2 min, 15 sec (135 sec)
gpgpu_simulation_rate = 217831 (inst/sec)
gpgpu_simulation_rate = 4806 (cycle/sec)
GPGPU-Sim: synchronize waiting for inactive GPU simulation
GPGPU-Sim API: Stream Manager State
GPGPU-Sim: detected inactive GPU simulation thread

GPGPU-Sim PTX: cudaLaunch for 0x0x4016f0 (mode=performance simulation) on stream 0
GPGPU-Sim PTX: pushing kernel '_Z10std_kernelPfS_S_' to stream 0, gridDim= (8,1,1) blockDim = (256,1,1) 
####  CUstream_st::push: Start pushing kernel: std_kernel  ####
kernel '_Z10std_kernelPfS_S_' transfer to GPU hardware scheduler
GPGPU-Sim uArch: Shader 9 bind to kernel 2 '_Z10std_kernelPfS_S_'
GPGPU-Sim uArch: CTA/core = 6, limited by: threads
GPGPU-Sim uArch: core:  9, cta: 0 initialized @(1,648895)
GPGPU-Sim uArch: Shader 10 bind to kernel 2 '_Z10std_kernelPfS_S_'
GPGPU-Sim uArch: core: 10, cta: 0 initialized @(1,648895)
GPGPU-Sim uArch: Shader 11 bind to kernel 2 '_Z10std_kernelPfS_S_'
GPGPU-Sim uArch: core: 11, cta: 0 initialized @(1,648895)
GPGPU-Sim uArch: Shader 12 bind to kernel 2 '_Z10std_kernelPfS_S_'
GPGPU-Sim uArch: core: 12, cta: 0 initialized @(1,648895)
GPGPU-Sim uArch: Shader 13 bind to kernel 2 '_Z10std_kernelPfS_S_'
GPGPU-Sim uArch: core: 13, cta: 0 initialized @(1,648895)
GPGPU-Sim uArch: Shader 14 bind to kernel 2 '_Z10std_kernelPfS_S_'
GPGPU-Sim uArch: core: 14, cta: 0 initialized @(1,648895)
GPGPU-Sim uArch: Shader 0 bind to kernel 2 '_Z10std_kernelPfS_S_'
GPGPU-Sim uArch: core:  0, cta: 0 initialized @(1,648895)
GPGPU-Sim uArch: Shader 1 bind to kernel 2 '_Z10std_kernelPfS_S_'
GPGPU-Sim uArch: core:  1, cta: 0 initialized @(1,648895)
GPGPU-Sim uArch: Shader 11 finished CTA #0 (675353,648895), 0 CTAs running
GPGPU-Sim uArch: Shader 11 empty (release kernel 2 '_Z10std_kernelPfS_S_').
GPGPU-Sim uArch: Shader 14 finished CTA #0 (675405,648895), 0 CTAs running
GPGPU-Sim uArch: Shader 14 empty (release kernel 2 '_Z10std_kernelPfS_S_').
GPGPU-Sim uArch: Shader 9 finished CTA #0 (675408,648895), 0 CTAs running
GPGPU-Sim uArch: Shader 9 empty (release kernel 2 '_Z10std_kernelPfS_S_').
GPGPU-Sim uArch: Shader 10 finished CTA #0 (675497,648895), 0 CTAs running
GPGPU-Sim uArch: Shader 10 empty (release kernel 2 '_Z10std_kernelPfS_S_').
GPGPU-Sim uArch: Shader 12 finished CTA #0 (675607,648895), 0 CTAs running
GPGPU-Sim uArch: Shader 12 empty (release kernel 2 '_Z10std_kernelPfS_S_').
GPGPU-Sim uArch: Shader 1 finished CTA #0 (675700,648895), 0 CTAs running
GPGPU-Sim uArch: Shader 1 empty (release kernel 2 '_Z10std_kernelPfS_S_').
GPGPU-Sim uArch: Shader 0 finished CTA #0 (676056,648895), 0 CTAs running
GPGPU-Sim uArch: Shader 0 empty (release kernel 2 '_Z10std_kernelPfS_S_').
GPGPU-Sim uArch: Shader 13 finished CTA #0 (676546,648895), 0 CTAs running
GPGPU-Sim uArch: Shader 13 empty (release kernel 2 '_Z10std_kernelPfS_S_').
GPGPU-Sim uArch: GPU detected kernel '_Z10std_kernelPfS_S_' finished on shader 13.
kernel_name = _Z10std_kernelPfS_S_ 
kernel_launch_uid = 2 
gpu_sim_cycle = 676547
gpu_sim_insn = 42002432
gpu_ipc =      62.0835
gpu_tot_sim_cycle = 1325442
gpu_tot_sim_insn = 71409664
gpu_tot_ipc =      53.8761
gpu_tot_issued_cta = 0
gpu_stall_dramfull = 110
gpu_stall_icnt2sh    = 35820
gpu_total_sim_rate=245394

========= Core cache stats =========
L1I_cache:
	L1I_total_cache_accesses = 1312832
	L1I_total_cache_misses = 320
	L1I_total_cache_miss_rate = 0.0002
	L1I_total_cache_pending_hits = 0
	L1I_total_cache_reservation_fails = 0
L1D_cache:
	L1D_cache_core[0]: Access = 97824, Miss = 51177, Miss_rate = 0.523, Pending_hits = 12974, Reservation_fails = 62
	L1D_cache_core[1]: Access = 162880, Miss = 102352, Miss_rate = 0.628, Pending_hits = 25443, Reservation_fails = 129
	L1D_cache_core[2]: Access = 65056, Miss = 51168, Miss_rate = 0.787, Pending_hits = 13501, Reservation_fails = 80
	L1D_cache_core[3]: Access = 65056, Miss = 51168, Miss_rate = 0.787, Pending_hits = 13293, Reservation_fails = 69
	L1D_cache_core[4]: Access = 65056, Miss = 51168, Miss_rate = 0.787, Pending_hits = 12964, Reservation_fails = 152
	L1D_cache_core[5]: Access = 65056, Miss = 51168, Miss_rate = 0.787, Pending_hits = 12352, Reservation_fails = 67
	L1D_cache_core[6]: Access = 65056, Miss = 51168, Miss_rate = 0.787, Pending_hits = 12995, Reservation_fails = 89
	L1D_cache_core[7]: Access = 65056, Miss = 51168, Miss_rate = 0.787, Pending_hits = 12803, Reservation_fails = 99
	L1D_cache_core[8]: Access = 65056, Miss = 51168, Miss_rate = 0.787, Pending_hits = 13006, Reservation_fails = 64
	L1D_cache_core[9]: Access = 97824, Miss = 51177, Miss_rate = 0.523, Pending_hits = 13432, Reservation_fails = 40
	L1D_cache_core[10]: Access = 97824, Miss = 51186, Miss_rate = 0.523, Pending_hits = 12967, Reservation_fails = 55
	L1D_cache_core[11]: Access = 97824, Miss = 51177, Miss_rate = 0.523, Pending_hits = 13047, Reservation_fails = 59
	L1D_cache_core[12]: Access = 97824, Miss = 51177, Miss_rate = 0.523, Pending_hits = 13491, Reservation_fails = 54
	L1D_cache_core[13]: Access = 97824, Miss = 51274, Miss_rate = 0.524, Pending_hits = 12062, Reservation_fails = 433
	L1D_cache_core[14]: Access = 97824, Miss = 51177, Miss_rate = 0.523, Pending_hits = 13123, Reservation_fails = 36
	L1D_total_cache_accesses = 1303040
	L1D_total_cache_misses = 818873
	L1D_total_cache_miss_rate = 0.6284
	L1D_total_cache_pending_hits = 207453
	L1D_total_cache_reservation_fails = 1488
	L1D_cache_data_port_util = 0.026
	L1D_cache_fill_port_util = 0.028
L1C_cache:
	L1C_total_cache_accesses = 320
	L1C_total_cache_misses = 120
	L1C_total_cache_miss_rate = 0.3750
	L1C_total_cache_pending_hits = 0
	L1C_total_cache_reservation_fails = 0
L1T_cache:
	L1T_total_cache_accesses = 0
	L1T_total_cache_misses = 0
	L1T_total_cache_pending_hits = 0
	L1T_total_cache_reservation_fails = 0

Total_core_cache_stats:
	Total_core_cache_stats_breakdown[GLOBAL_ACC_R][HIT] = 276714
	Total_core_cache_stats_breakdown[GLOBAL_ACC_R][HIT_RESERVED] = 207453
	Total_core_cache_stats_breakdown[GLOBAL_ACC_R][MISS] = 294073
	Total_core_cache_stats_breakdown[GLOBAL_ACC_R][RESERVATION_FAIL] = 1223
	Total_core_cache_stats_breakdown[CONST_ACC_R][HIT] = 200
	Total_core_cache_stats_breakdown[CONST_ACC_R][MISS] = 120
	Total_core_cache_stats_breakdown[GLOBAL_ACC_W][MISS] = 524800
	Total_core_cache_stats_breakdown[GLOBAL_ACC_W][RESERVATION_FAIL] = 265
	Total_core_cache_stats_breakdown[INST_ACC_R][HIT] = 1312512
	Total_core_cache_stats_breakdown[INST_ACC_R][MISS] = 320
Shader 0 warp_id issue ditsribution:
warp_id:
0, 1, 2, 3, 4, 5, 6, 7, 
distro:
20511, 20511, 20511, 20511, 20511, 20511, 20511, 20511, 
gpgpu_n_tot_thrd_icount = 71417856
gpgpu_n_tot_w_icount = 2231808
gpgpu_n_stall_shd_mem = 648912
gpgpu_n_mem_read_local = 0
gpgpu_n_mem_write_local = 0
gpgpu_n_mem_read_global = 294073
gpgpu_n_mem_write_global = 524800
gpgpu_n_mem_texture = 0
gpgpu_n_mem_const = 15
gpgpu_n_load_insn  = 12582912
gpgpu_n_store_insn = 8396800
gpgpu_n_shmem_insn = 0
gpgpu_n_tex_insn = 0
gpgpu_n_const_mem_insn = 0
gpgpu_n_param_mem_insn = 10240
gpgpu_n_shmem_bkconflict = 0
gpgpu_n_cache_bkconflict = 0
gpgpu_n_intrawarp_mshr_merge = 0
gpgpu_n_cmem_portconflict = 0
gpgpu_stall_shd_mem[c_mem][bk_conf] = 0
gpgpu_stall_shd_mem[c_mem][mshr_rc] = 0
gpgpu_stall_shd_mem[c_mem][icnt_rc] = 0
gpgpu_stall_shd_mem[c_mem][data_port_stall] = 0
gpgpu_stall_shd_mem[t_mem][mshr_rc] = 0
gpgpu_stall_shd_mem[t_mem][icnt_rc] = 0
gpgpu_stall_shd_mem[t_mem][data_port_stall] = 0
gpgpu_stall_shd_mem[s_mem][bk_conf] = 0
gpgpu_stall_shd_mem[gl_mem][bk_conf] = 0
gpgpu_stall_shd_mem[gl_mem][coal_stall] = 648912
gpgpu_stall_shd_mem[gl_mem][data_port_stall] = 0
gpgpu_stall_shd_mem[g_mem_ld][mshr_rc] = 0
gpgpu_stall_shd_mem[g_mem_ld][icnt_rc] = 0
gpgpu_stall_shd_mem[g_mem_ld][wb_icnt_rc] = 0
gpgpu_stall_shd_mem[g_mem_ld][wb_rsrv_fail] = 0
gpgpu_stall_shd_mem[g_mem_st][mshr_rc] = 0
gpgpu_stall_shd_mem[g_mem_st][icnt_rc] = 0
gpgpu_stall_shd_mem[g_mem_st][wb_icnt_rc] = 0
gpgpu_stall_shd_mem[g_mem_st][wb_rsrv_fail] = 0
gpgpu_stall_shd_mem[l_mem_ld][mshr_rc] = 0
gpgpu_stall_shd_mem[l_mem_ld][icnt_rc] = 0
gpgpu_stall_shd_mem[l_mem_ld][wb_icnt_rc] = 0
gpgpu_stall_shd_mem[l_mem_ld][wb_rsrv_fail] = 0
gpgpu_stall_shd_mem[l_mem_st][mshr_rc] = 0
gpgpu_stall_shd_mem[l_mem_st][icnt_rc] = 0
gpgpu_stall_shd_mem[l_mem_ld][wb_icnt_rc] = 0
gpgpu_stall_shd_mem[l_mem_ld][wb_rsrv_fail] = 0
gpu_reg_bank_conflict_stalls = 0
Warp Occupancy Distribution:
Stall:32754	W0_Idle:24347	W0_Scoreboard:18881977	W1:0	W2:0	W3:0	W4:0	W5:0	W6:0	W7:0	W8:0	W9:0	W10:0	W11:0	W12:0	W13:0	W14:0	W15:0	W16:0	W17:0	W18:0	W19:0	W20:0	W21:0	W22:0	W23:0	W24:0	W25:0	W26:0	W27:0	W28:0	W29:0	W30:0	W31:0	W32:2231808
traffic_breakdown_coretomem[CONST_ACC_R] = 120 {8:15,}
traffic_breakdown_coretomem[GLOBAL_ACC_R] = 2352584 {8:294073,}
traffic_breakdown_coretomem[GLOBAL_ACC_W] = 46182400 {40:262400,136:262400,}
traffic_breakdown_coretomem[INST_ACC_R] = 320 {8:40,}
traffic_breakdown_memtocore[CONST_ACC_R] = 1080 {72:15,}
traffic_breakdown_memtocore[GLOBAL_ACC_R] = 39993928 {136:294073,}
traffic_breakdown_memtocore[GLOBAL_ACC_W] = 4198400 {8:524800,}
traffic_breakdown_memtocore[INST_ACC_R] = 5440 {136:40,}
maxmrqlatency = 174 
maxdqlatency = 0 
maxmflatency = 538 
averagemflatency = 191 
max_icnt2mem_latency = 94 
max_icnt2sh_latency = 1325441 
mrq_lat_table:220864 	28870 	5961 	2837 	3925 	141 	127 	15 	0 	0 	0 	0 	0 	0 	0 	0 	0 	0 	0 	0 	0 	0 	0 	0 	0 	0 	0 	0 	0 	0 	0 	0 	
dq_lat_table:0 	0 	0 	0 	0 	0 	0 	0 	0 	0 	0 	0 	0 	0 	0 	0 	0 	0 	0 	0 	0 	0 	0 	0 	0 	0 	0 	0 	0 	0 	0 	0 	
mf_lat_table:0 	0 	0 	0 	0 	0 	0 	550040 	268840 	8 	0 	0 	0 	0 	0 	0 	0 	0 	0 	0 	0 	0 	0 	0 	0 	0 	0 	0 	0 	0 	0 	0 	
icnt2mem_lat_table:0 	0 	0 	395521 	369875 	53268 	264 	0 	0 	0 	0 	0 	0 	0 	0 	0 	0 	0 	0 	0 	0 	0 	0 	0 	
icnt2sh_lat_table:0 	0 	0 	162097 	128906 	3082 	3 	0 	0 	81 	310 	840 	1658 	3342 	6740 	13278 	26552 	53253 	106365 	204745 	107636 	0 	0 	0 	
mf_lat_pw_table:0 	0 	0 	0 	0 	0 	0 	1 	0 	0 	0 	0 	0 	0 	0 	0 	0 	0 	0 	0 	0 	0 	0 	0 	0 	0 	0 	0 	0 	0 	0 	0 	
maximum concurrent accesses to same row:
dram[0]:        32        32        32        32        32        32        32        32        32        32        32        32        32        32        32        32 
dram[1]:        32        32        32        32        32        32        32        32        32        32        32        32        32        32        32        32 
dram[2]:        32        32        32        32        32        32        32        32        32        32        32        32        32        32        32        32 
dram[3]:        32        32        32        32        32        32        32        32        32        32        32        32        32        32        32        32 
dram[4]:        32        32        32        32        32        32        32        32        32        32        32        32        32        32        32        32 
dram[5]:        32        32        32        32        32        32        32        32        32        32        32        32        32        32        32        32 
maximum service time to same row:
dram[0]:     16047     16082     16066     16039     16166     16134     16312     16059     16105     16006     16103     16013     16056     16043     16064     16060 
dram[1]:     16128     16065     16114     15983     16097     16033     16141     16037     16051     16014     16071     16021     16044     16029     16062     16034 
dram[2]:     16124     16019     16143     16071     16127     16172     16066     16136     16089     16082     16092     16089     16119     16041     16111     16037 
dram[3]:     16077     16057     16189     16085     16172     16077     16091     16088     16131     16034     16078     16088     16042     16058     16059     16046 
dram[4]:     16209     16067     16292     16074     16298     16071     16218     16108     16081     16135     16056     16107     16107     16057     16139     16060 
dram[5]:     16148     16030     16112     16013     16157     16038     16146     16068     16093     16014     16081     16031     16042     16028     16183     16020 
average row accesses per activate:
dram[0]: 30.177778 31.488373 32.000000 32.000000 31.348837 31.395350 32.000000 32.000000 32.000000 32.000000 32.000000 32.000000 31.303371 31.044445 32.000000 32.000000 
dram[1]: 31.195402 31.488373 32.000000 32.000000 31.348837 31.395350 32.000000 32.000000 32.000000 32.000000 32.000000 32.000000 31.325842 30.347826 32.000000 32.000000 
dram[2]: 31.183908 31.488373 32.000000 32.000000 31.348837 31.395350 32.000000 32.000000 32.000000 32.000000 32.000000 32.000000 31.382023 31.303371 32.000000 32.000000 
dram[3]: 31.534883 31.488373 32.000000 32.000000 31.348837 31.395350 32.000000 32.000000 32.000000 32.000000 32.000000 32.000000 29.442104 31.303371 32.000000 32.000000 
dram[4]: 31.511627 31.488373 32.000000 32.000000 31.395350 31.395350 32.000000 32.000000 32.000000 32.000000 32.000000 32.000000 31.055555 31.258427 32.000000 32.000000 
dram[5]: 31.488373 31.488373 32.000000 32.000000 31.395350 31.395350 32.000000 32.000000 32.000000 32.000000 32.000000 32.000000 30.736263 31.314608 32.000000 32.000000 
average row locality = 262740/8287 = 31.705080
number of total memory accesses made:
dram[0]:         0         0         0         0         0         0         0         0         0         0         0         0         0         0         0         0 
dram[1]:         0         0         0         0         0         0         0         0         0         0         0         0         0         0         0         0 
dram[2]:         0         0         0         0         0         0         0         0         0         0         0         0         0         0         0         0 
dram[3]:         0         0         0         0         0         0         0         0         0         0         0         0         0         0         0         0 
dram[4]:         0         0         0         0         0         0         0         0         0         0         0         0         0         0         0         0 
dram[5]:         0         0         0         0         0         0         0         0         0         0         0         0         0         0         0         0 
total accesses: 0
min_bank_accesses = 0!
min_chip_accesses = 0!
number of total read accesses:
dram[0]:      2716      2708      2688      2688      2696      2700      2752      2752      2752      2752      2752      2752      2762      2765      2752      2752 
dram[1]:      2714      2708      2688      2688      2696      2700      2752      2752      2752      2752      2752      2752      2762      2766      2752      2752 
dram[2]:      2713      2708      2688      2688      2696      2700      2752      2752      2752      2752      2752      2752      2764      2762      2752      2752 
dram[3]:      2712      2708      2688      2688      2696      2700      2752      2752      2752      2752      2752      2752      2767      2762      2752      2752 
dram[4]:      2710      2708      2688      2688      2700      2700      2752      2752      2752      2752      2752      2752      2765      2761      2752      2752 
dram[5]:      2708      2708      2688      2688      2700      2700      2752      2752      2752      2752      2752      2752      2767      2762      2752      2752 
total reads: 262422
bank skew: 2767/2688 = 1.03
chip skew: 43739/43735 = 1.00
number of total write accesses:
dram[0]:         0         0         0         0         0         0         0         0         0         0         0         0        24        29         0         0 
dram[1]:         0         0         0         0         0         0         0         0         0         0         0         0        26        26         0         0 
dram[2]:         0         0         0         0         0         0         0         0         0         0         0         0        29        24         0         0 
dram[3]:         0         0         0         0         0         0         0         0         0         0         0         0        30        24         0         0 
dram[4]:         0         0         0         0         0         0         0         0         0         0         0         0        30        21         0         0 
dram[5]:         0         0         0         0         0         0         0         0         0         0         0         0        30        25         0         0 
total reads: 318
min_bank_accesses = 0!
chip skew: 55/51 = 1.08
average mf latency per bank:
dram[0]:        296       298       296       299       295       298       299       299       298       299       296       295      2505      2940       297       296
dram[1]:        297       296       299       297       296       296       297       299       295       299       295       296      2502      2620       298       297
dram[2]:        297       296       299       297       296       295       299       299       299       299       295       296      2838      2507       295       297
dram[3]:        295       298       297       300       295       296       298       297       299       296       297       295      2947      2505       298       297
dram[4]:        295       298       296       299       295       296       299       299       299       298       296       295      2943      2171       297       295
dram[5]:        298       295       299       297       296       295       296       299       295       299       295       296      2934      2398       298       297
maximum mf latency per bank:
dram[0]:        326       325       327       330       333       328       350       341       326       339       327       329       472       438       342       325
dram[1]:        330       333       322       322       315       335       341       368       325       357       323       326       427       399       322       330
dram[2]:        330       326       331       330       323       360       341       347       327       335       329       321       504       433       324       333
dram[3]:        314       322       328       327       324       325       334       348       339       330       325       331       456       410       325       324
dram[4]:        323       327       329       320       337       365       332       335       335       344       324       318       538       430       325       330
dram[5]:        320       332       332       325       337       388       328       348       326       327       319       330       523       450       329       327
Memory Partition 0: 
Cache L2_bank_000:
MSHR contents

Cache L2_bank_001:
MSHR contents

In Dram Latency Queue (total = 0): 
DRAM[0]: 16 bks, busW=4 BL=8 CL=12, tRRD=2 tCCD=6, tRCD=12 tRAS=28 tRP=12 tRC=40
n_cmd=1724889 n_nop=1634576 n_act=1383 n_pre=1367 n_req=43792 n_rd=87478 n_write=85 bw_util=0.1015
n_activity=537939 dram_eff=0.3255
bk0: 5432a 1710333i bk1: 5416a 1709428i bk2: 5376a 1710452i bk3: 5376a 1709368i bk4: 5392a 1710297i bk5: 5400a 1709090i bk6: 5504a 1710156i bk7: 5504a 1708721i bk8: 5504a 1710378i bk9: 5504a 1709094i bk10: 5504a 1710268i bk11: 5504a 1709080i bk12: 5524a 1709590i bk13: 5530a 1708372i bk14: 5504a 1709965i bk15: 5504a 1708849i 
dram_util_bins: 0 0 0 0 0 0 0 0 0 0
dram_eff_bins: 0 0 0 0 0 0 0 0 0 0
mrqq: max=13 avg=0.0236241
Memory Partition 1: 
Cache L2_bank_002:
MSHR contents

Cache L2_bank_003:
MSHR contents

In Dram Latency Queue (total = 0): 
DRAM[1]: 16 bks, busW=4 BL=8 CL=12, tRRD=2 tCCD=6, tRCD=12 tRAS=28 tRP=12 tRC=40
n_cmd=1724889 n_nop=1634582 n_act=1382 n_pre=1366 n_req=43790 n_rd=87476 n_write=83 bw_util=0.1015
n_activity=535124 dram_eff=0.3272
bk0: 5428a 1710398i bk1: 5416a 1708950i bk2: 5376a 1710440i bk3: 5376a 1709066i bk4: 5392a 1710346i bk5: 5400a 1709001i bk6: 5504a 1710072i bk7: 5504a 1708696i bk8: 5504a 1710254i bk9: 5504a 1709248i bk10: 5504a 1710105i bk11: 5504a 1708815i bk12: 5524a 1709470i bk13: 5532a 1708183i bk14: 5504a 1709987i bk15: 5504a 1708803i 
dram_util_bins: 0 0 0 0 0 0 0 0 0 0
dram_eff_bins: 0 0 0 0 0 0 0 0 0 0
mrqq: max=15 avg=0.0249628
Memory Partition 2: 
Cache L2_bank_004:
MSHR contents

Cache L2_bank_005:
MSHR contents

In Dram Latency Queue (total = 0): 
DRAM[2]: 16 bks, busW=4 BL=8 CL=12, tRRD=2 tCCD=6, tRCD=12 tRAS=28 tRP=12 tRC=40
n_cmd=1724889 n_nop=1634592 n_act=1379 n_pre=1363 n_req=43788 n_rd=87470 n_write=85 bw_util=0.1015
n_activity=537112 dram_eff=0.326
bk0: 5426a 1710424i bk1: 5416a 1709399i bk2: 5376a 1710439i bk3: 5376a 1709323i bk4: 5392a 1710313i bk5: 5400a 1709223i bk6: 5504a 1709971i bk7: 5504a 1708843i bk8: 5504a 1710121i bk9: 5504a 1709044i bk10: 5504a 1709963i bk11: 5504a 1708870i bk12: 5528a 1709387i bk13: 5524a 1708226i bk14: 5504a 1710138i bk15: 5504a 1708855i 
dram_util_bins: 0 0 0 0 0 0 0 0 0 0
dram_eff_bins: 0 0 0 0 0 0 0 0 0 0
mrqq: max=16 avg=0.0248306
Memory Partition 3: 
Cache L2_bank_006:
MSHR contents

Cache L2_bank_007:
MSHR contents

In Dram Latency Queue (total = 0): 
DRAM[3]: 16 bks, busW=4 BL=8 CL=12, tRRD=2 tCCD=6, tRCD=12 tRAS=28 tRP=12 tRC=40
n_cmd=1724889 n_nop=1634577 n_act=1384 n_pre=1368 n_req=43791 n_rd=87474 n_write=86 bw_util=0.1015
n_activity=536383 dram_eff=0.3265
bk0: 5424a 1710371i bk1: 5416a 1709167i bk2: 5376a 1710363i bk3: 5376a 1709046i bk4: 5392a 1710291i bk5: 5400a 1709041i bk6: 5504a 1710048i bk7: 5504a 1708725i bk8: 5504a 1710094i bk9: 5504a 1708898i bk10: 5504a 1710075i bk11: 5504a 1708846i bk12: 5534a 1709196i bk13: 5524a 1708190i bk14: 5504a 1710103i bk15: 5504a 1709052i 
dram_util_bins: 0 0 0 0 0 0 0 0 0 0
dram_eff_bins: 0 0 0 0 0 0 0 0 0 0
mrqq: max=16 avg=0.0254724
Memory Partition 4: 
Cache L2_bank_008:
MSHR contents

Cache L2_bank_009:
MSHR contents

In Dram Latency Queue (total = 0): 
DRAM[4]: 16 bks, busW=4 BL=8 CL=12, tRRD=2 tCCD=6, tRCD=12 tRAS=28 tRP=12 tRC=40
n_cmd=1724889 n_nop=1634594 n_act=1379 n_pre=1363 n_req=43787 n_rd=87472 n_write=81 bw_util=0.1015
n_activity=538646 dram_eff=0.3251
bk0: 5420a 1710440i bk1: 5416a 1709424i bk2: 5376a 1710520i bk3: 5376a 1709352i bk4: 5400a 1710330i bk5: 5400a 1709101i bk6: 5504a 1710070i bk7: 5504a 1708678i bk8: 5504a 1710332i bk9: 5504a 1709095i bk10: 5504a 1710158i bk11: 5504a 1708784i bk12: 5530a 1709322i bk13: 5522a 1708416i bk14: 5504a 1710013i bk15: 5504a 1708880i 
dram_util_bins: 0 0 0 0 0 0 0 0 0 0
dram_eff_bins: 0 0 0 0 0 0 0 0 0 0
mrqq: max=16 avg=0.023489
Memory Partition 5: 
Cache L2_bank_010:
MSHR contents

Cache L2_bank_011:
MSHR contents

In Dram Latency Queue (total = 0): 
DRAM[5]: 16 bks, busW=4 BL=8 CL=12, tRRD=2 tCCD=6, tRCD=12 tRAS=28 tRP=12 tRC=40
n_cmd=1724889 n_nop=1634582 n_act=1380 n_pre=1364 n_req=43792 n_rd=87474 n_write=89 bw_util=0.1015
n_activity=536668 dram_eff=0.3263
bk0: 5416a 1710398i bk1: 5416a 1709166i bk2: 5376a 1710475i bk3: 5376a 1709201i bk4: 5400a 1710303i bk5: 5400a 1709184i bk6: 5504a 1710010i bk7: 5504a 1708738i bk8: 5504a 1710216i bk9: 5504a 1709079i bk10: 5504a 1710036i bk11: 5504a 1708809i bk12: 5534a 1709234i bk13: 5524a 1708126i bk14: 5504a 1710071i bk15: 5504a 1708929i 
dram_util_bins: 0 0 0 0 0 0 0 0 0 0
dram_eff_bins: 0 0 0 0 0 0 0 0 0 0
mrqq: max=16 avg=0.0256602

========= L2 cache stats =========
L2_cache_bank[0]: Access = 65542, Miss = 21870, Miss_rate = 0.334, Pending_hits = 1472, Reservation_fails = 450
L2_cache_bank[1]: Access = 73713, Miss = 21869, Miss_rate = 0.297, Pending_hits = 1456, Reservation_fails = 0
L2_cache_bank[2]: Access = 65525, Miss = 21868, Miss_rate = 0.334, Pending_hits = 1437, Reservation_fails = 125
L2_cache_bank[3]: Access = 67560, Miss = 21870, Miss_rate = 0.324, Pending_hits = 1407, Reservation_fails = 0
L2_cache_bank[4]: Access = 71655, Miss = 21869, Miss_rate = 0.305, Pending_hits = 1441, Reservation_fails = 30
L2_cache_bank[5]: Access = 65494, Miss = 21866, Miss_rate = 0.334, Pending_hits = 1463, Reservation_fails = 0
L2_cache_bank[6]: Access = 73714, Miss = 21871, Miss_rate = 0.297, Pending_hits = 1412, Reservation_fails = 0
L2_cache_bank[7]: Access = 65508, Miss = 21866, Miss_rate = 0.334, Pending_hits = 1449, Reservation_fails = 0
L2_cache_bank[8]: Access = 73712, Miss = 21871, Miss_rate = 0.297, Pending_hits = 1489, Reservation_fails = 0
L2_cache_bank[9]: Access = 59361, Miss = 21865, Miss_rate = 0.368, Pending_hits = 1431, Reservation_fails = 0
L2_cache_bank[10]: Access = 73702, Miss = 21871, Miss_rate = 0.297, Pending_hits = 1441, Reservation_fails = 0
L2_cache_bank[11]: Access = 63442, Miss = 21866, Miss_rate = 0.345, Pending_hits = 1388, Reservation_fails = 0
L2_total_cache_accesses = 818928
L2_total_cache_misses = 262422
L2_total_cache_miss_rate = 0.3204
L2_total_cache_pending_hits = 17286
L2_total_cache_reservation_fails = 605
L2_total_cache_breakdown:
	L2_cache_stats_breakdown[GLOBAL_ACC_R][HIT] = 14643
	L2_cache_stats_breakdown[GLOBAL_ACC_R][HIT_RESERVED] = 17145
	L2_cache_stats_breakdown[GLOBAL_ACC_R][MISS] = 262285
	L2_cache_stats_breakdown[CONST_ACC_R][HIT] = 7
	L2_cache_stats_breakdown[CONST_ACC_R][HIT_RESERVED] = 6
	L2_cache_stats_breakdown[CONST_ACC_R][MISS] = 2
	L2_cache_stats_breakdown[CONST_ACC_R][RESERVATION_FAIL] = 218
	L2_cache_stats_breakdown[GLOBAL_ACC_W][HIT] = 524547
	L2_cache_stats_breakdown[GLOBAL_ACC_W][HIT_RESERVED] = 123
	L2_cache_stats_breakdown[GLOBAL_ACC_W][MISS] = 130
	L2_cache_stats_breakdown[INST_ACC_R][HIT] = 23
	L2_cache_stats_breakdown[INST_ACC_R][HIT_RESERVED] = 12
	L2_cache_stats_breakdown[INST_ACC_R][MISS] = 5
	L2_cache_stats_breakdown[INST_ACC_R][RESERVATION_FAIL] = 387
L2_cache_data_port_util = 0.086
L2_cache_fill_port_util = 0.066

icnt_total_pkts_mem_to_simt=1995410
icnt_total_pkts_simt_to_mem=2130928
LD_mem_lat_dist  0 0 0 0 0 0 0 0 0 0 0 0 0 0 0 0 0 0 0 0 0 0 0 0 0 0 0
ST_mem_lat_dist  0 0 0 0 0 0 0 0 0 0 0 0 0 0 0 0 0 0 0 0 0 0 0 0 0 0 0
----------------------------Interconnect-DETAILS--------------------------------
Class 0:
Packet latency average = 12.0826
	minimum = 6
	maximum = 67
Network latency average = 10.5686
	minimum = 6
	maximum = 54
Slowest packet = 819129
Flit latency average = 9.2896
	minimum = 6
	maximum = 50
Slowest flit = 2063520
Fragmentation average = 0
	minimum = 0
	maximum = 0
Injected packet rate average = 0.0448421
	minimum = 0 (at node 2)
	maximum = 0.0757937 (at node 13)
Accepted packet rate average = 0.0448421
	minimum = 0 (at node 2)
	maximum = 0.0757937 (at node 13)
Injected flit rate average = 0.112978
	minimum = 0 (at node 2)
	maximum = 0.196997 (at node 13)
Accepted flit rate average= 0.112978
	minimum = 0 (at node 2)
	maximum = 0.18504 (at node 13)
Injected packet length average = 2.51947
Accepted packet length average = 2.51947
Total in-flight flits = 0 (0 measured)
====== Overall Traffic Statistics ======
====== Traffic class 0 ======
Packet latency average = 12.1835 (2 samples)
	minimum = 6 (2 samples)
	maximum = 66 (2 samples)
Network latency average = 10.5885 (2 samples)
	minimum = 6 (2 samples)
	maximum = 55 (2 samples)
Flit latency average = 9.26894 (2 samples)
	minimum = 6 (2 samples)
	maximum = 51.5 (2 samples)
Fragmentation average = 0 (2 samples)
	minimum = 0 (2 samples)
	maximum = 0 (2 samples)
Injected packet rate average = 0.0457866 (2 samples)
	minimum = 0 (2 samples)
	maximum = 0.0773262 (2 samples)
Accepted packet rate average = 0.0457866 (2 samples)
	minimum = 0 (2 samples)
	maximum = 0.0773262 (2 samples)
Injected flit rate average = 0.115352 (2 samples)
	minimum = 0 (2 samples)
	maximum = 0.201112 (2 samples)
Accepted flit rate average = 0.115352 (2 samples)
	minimum = 0 (2 samples)
	maximum = 0.18857 (2 samples)
Injected packet size average = 2.51935 (2 samples)
Accepted packet size average = 2.51935 (2 samples)
Hops average = 1 (2 samples)
----------------------------END-of-Interconnect-DETAILS-------------------------


gpgpu_simulation_time = 0 days, 0 hrs, 4 min, 51 sec (291 sec)
gpgpu_simulation_rate = 245394 (inst/sec)
gpgpu_simulation_rate = 4554 (cycle/sec)
GPGPU-Sim: synchronize waiting for inactive GPU simulation
GPGPU-Sim API: Stream Manager State
GPGPU-Sim: detected inactive GPU simulation thread

GPGPU-Sim PTX: cudaLaunch for 0x0x401770 (mode=performance simulation) on stream 0
GPGPU-Sim PTX: pushing kernel '_Z13reduce_kernelPfS_S_' to stream 0, gridDim= (64,256,1) blockDim = (32,8,1) 
####  CUstream_st::push: Start pushing kernel: reduce_kernel  ####
kernel '_Z13reduce_kernelPfS_S_' transfer to GPU hardware scheduler
GPGPU-Sim uArch: Shader 2 bind to kernel 3 '_Z13reduce_kernelPfS_S_'
GPGPU-Sim uArch: CTA/core = 6, limited by: threads
GPGPU-Sim uArch: core:  2, cta: 0 initialized @(1,1325442)
GPGPU-Sim uArch: Shader 3 bind to kernel 3 '_Z13reduce_kernelPfS_S_'
GPGPU-Sim uArch: core:  3, cta: 0 initialized @(1,1325442)
GPGPU-Sim uArch: Shader 4 bind to kernel 3 '_Z13reduce_kernelPfS_S_'
GPGPU-Sim uArch: core:  4, cta: 0 initialized @(1,1325442)
GPGPU-Sim uArch: Shader 5 bind to kernel 3 '_Z13reduce_kernelPfS_S_'
GPGPU-Sim uArch: core:  5, cta: 0 initialized @(1,1325442)
GPGPU-Sim uArch: Shader 6 bind to kernel 3 '_Z13reduce_kernelPfS_S_'
GPGPU-Sim uArch: core:  6, cta: 0 initialized @(1,1325442)
GPGPU-Sim uArch: Shader 7 bind to kernel 3 '_Z13reduce_kernelPfS_S_'
GPGPU-Sim uArch: core:  7, cta: 0 initialized @(1,1325442)
GPGPU-Sim uArch: Shader 8 bind to kernel 3 '_Z13reduce_kernelPfS_S_'
GPGPU-Sim uArch: core:  8, cta: 0 initialized @(1,1325442)
GPGPU-Sim uArch: Shader 9 bind to kernel 3 '_Z13reduce_kernelPfS_S_'
GPGPU-Sim uArch: core:  9, cta: 0 initialized @(1,1325442)
GPGPU-Sim uArch: Shader 10 bind to kernel 3 '_Z13reduce_kernelPfS_S_'
GPGPU-Sim uArch: core: 10, cta: 0 initialized @(1,1325442)
GPGPU-Sim uArch: Shader 11 bind to kernel 3 '_Z13reduce_kernelPfS_S_'
[...]
traffic_breakdown_memtocore[GLOBAL_ACC_W] = 8327168 {8:1040896,}
traffic_breakdown_memtocore[INST_ACC_R] = 12512 {136:92,}
maxmrqlatency = 175 
maxdqlatency = 0 
maxmflatency = 782 
averagemflatency = 191 
max_icnt2mem_latency = 508 
max_icnt2sh_latency = 1757210 
mrq_lat_table:309789 	41785 	16191 	23862 	69515 	47284 	10513 	130 	0 	0 	0 	0 	0 	0 	0 	0 	0 	0 	0 	0 	0 	0 	0 	0 	0 	0 	0 	0 	0 	0 	0 	0 	
dq_lat_table:0 	0 	0 	0 	0 	0 	0 	0 	0 	0 	0 	0 	0 	0 	0 	0 	0 	0 	0 	0 	0 	0 	0 	0 	0 	0 	0 	0 	0 	0 	0 	0 	
mf_lat_table:0 	0 	0 	0 	0 	0 	0 	828047 	796369 	7660 	0 	0 	0 	0 	0 	0 	0 	0 	0 	0 	0 	0 	0 	0 	0 	0 	0 	0 	0 	0 	0 	0 	
icnt2mem_lat_table:0 	0 	0 	412273 	394076 	140772 	538142 	136218 	10687 	0 	0 	0 	0 	0 	0 	0 	0 	0 	0 	0 	0 	0 	0 	0 	
icnt2sh_lat_table:0 	0 	0 	192799 	266816 	125126 	6430 	9 	0 	81 	310 	840 	1658 	3342 	6740 	13278 	26552 	53253 	106365 	204745 	623732 	0 	0 	0 	
mf_lat_pw_table:0 	0 	0 	0 	0 	0 	0 	2 	0 	0 	0 	0 	0 	0 	0 	0 	0 	0 	0 	0 	0 	0 	0 	0 	0 	0 	0 	0 	0 	0 	0 	0 	
maximum concurrent accesses to same row:
dram[0]:        32        32        32        32        32        32        32        32        32        32        32        32        32        32        32        32 
dram[1]:        32        32        32        32        32        32        32        32        32        32        32        32        32        32        32        32 
dram[2]:        32        32        32        32        32        32        32        32        32        32        32        32        32        32        32        32 
dram[3]:        32        32        32        32        32        32        32        32        32        32        32        32        32        32        32        32 
dram[4]:        32        32        32        32        32        32        32        32        32        32        32        32        32        32        32        32 
dram[5]:        32        32        32        32        32        32        32        32        32        32        32        32        32        32        32        32 
maximum service time to same row:
dram[0]:     16047     16082     16066     16039     16166     16134     16312     16059     16105     16006     16103     16013     16056     16043     16064     16060 
dram[1]:     16128     16065     16114     15983     16097     16033     16141     16037     16051     16014     16071     16021     16044     16029     16062     16034 
dram[2]:     16124     16019     16143     16071     16127     16172     16066     16136     16089     16082     16092     16089     16119     16041     16111     16037 
dram[3]:     16077     16057     16189     16085     16172     16077     16091     16088     16131     16034     16078     16088     16042     16058     16059     16046 
dram[4]:     16209     16067     16292     16074     16298     16071     16218     16108     16081     16135     16056     16107     16107     16057     16139     16060 
dram[5]:     16148     16030     16112     16013     16157     16038     16146     16068     16093     16014     16081     16031     16042     16028     16183     16020 
average row accesses per activate:
dram[0]:  4.553481  4.885036  3.366287  3.429309  4.466946  4.909091  4.102564  4.032617  4.552301  5.051068  3.427851  3.395755  4.655905  4.797203  4.026647  4.171779 
dram[1]:  4.464613  4.586975  3.453836  3.336684  4.466946  4.515203  3.976608  4.096385  4.503311  4.746946  3.362175  3.385190  4.602855  4.632601  4.002944  4.108761 
dram[2]:  4.879891  4.715418  3.381286  3.385596  4.845735  4.519020  3.933478  4.191063  4.990826  4.759405  3.347692  3.383085  4.842895  4.531017  4.029630  4.136882 
dram[3]:  4.830631  4.666085  3.372698  3.409499  4.828210  4.407255  4.005891  4.047619  4.865832  4.936479  3.438685  3.460560  4.783101  4.486486  4.050633  4.108761 
dram[4]:  4.808797  4.333603  3.424887  3.381286  4.669869  4.303543  4.047619  4.204019  4.857143  4.484748  3.345634  3.467176  4.827617  4.450407  4.099473  4.047619 
dram[5]:  4.889498  4.605852  3.351419  3.422680  4.681261  4.519020  3.973703  4.020695  4.923077  4.746946  3.467176  3.438685  4.915846  4.559900  3.994126  4.140030 
average row locality = 519069/125541 = 4.134657
number of total memory accesses made:
dram[0]:         0         0         0         0         0         0         0         0         0         0         0         0         0         0         0         0 
dram[1]:         0         0         0         0         0         0         0         0         0         0         0         0         0         0         0         0 
dram[2]:         0         0         0         0         0         0         0         0         0         0         0         0         0         0         0         0 
dram[3]:         0         0         0         0         0         0         0         0         0         0         0         0         0         0         0         0 
dram[4]:         0         0         0         0         0         0         0         0         0         0         0         0         0         0         0         0 
dram[5]:         0         0         0         0         0         0         0         0         0         0         0         0         0         0         0         0 
total accesses: 0
min_bank_accesses = 0!
min_chip_accesses = 0!
number of total read accesses:
dram[0]:      4072      4062      4032      4032      4044      4050      4128      4128      4128      4128      4128      4128      4144      4147      4128      4128 
dram[1]:      4070      4062      4032      4032      4044      4050      4128      4128      4128      4128      4128      4128      4144      4147      4128      4128 
dram[2]:      4071      4062      4032      4032      4044      4050      4128      4128      4128      4128      4128      4128      4146      4142      4128      4128 
dram[3]:      4070      4062      4032      4032      4044      4050      4128      4128      4128      4128      4128      4128      4149      4142      4128      4128 
dram[4]:      4065      4062      4032      4032      4050      4050      4128      4128      4128      4128      4128      4128      4147      4141      4128      4128 
dram[5]:      4062      4062      4032      4032      4050      4050      4128      4128      4128      4128      4128      4128      4149      4144      4128      4128 
total reads: 393628
bank skew: 4149/4032 = 1.03
chip skew: 65607/65603 = 1.00
number of total write accesses:
dram[0]:      1292      1292      1280      1280      1294      1296      1312      1312      1312      1312      1312      1312      1336      1341      1312      1312 
dram[1]:      1292      1291      1280      1280      1294      1296      1312      1312      1312      1312      1312      1312      1338      1338      1312      1312 
dram[2]:      1292      1290      1280      1280      1296      1296      1312      1312      1312      1312      1312      1312      1341      1336      1312      1312 
dram[3]:      1292      1290      1280      1280      1296      1296      1312      1312      1312      1312      1312      1312      1342      1336      1312      1312 
dram[4]:      1292      1290      1280      1280      1297      1295      1312      1312      1312      1312      1312      1312      1342      1333      1312      1312 
dram[5]:      1292      1290      1280      1280      1296      1296      1312      1312      1312      1312      1312      1312      1342      1337      1312      1312 
total reads: 125441
bank skew: 1342/1280 = 1.05
chip skew: 20909/20905 = 1.00
average mf latency per bank:
dram[0]:        590       595       603       609       579       590       603       609       600       600       586       586      1897      2152       597       598
dram[1]:        583       591       598       605       576       590       602       604       595       598       583       581      1895      1957       595       591
dram[2]:        591       588       604       600       587       580       602       607       598       598       583       580      2092      1889       598       588
dram[3]:        592       594       612       599       593       576       607       607       603       604       588       590      2162      1899       604       595
dram[4]:        589       588       603       593       587       576       607       600       604       595       591       580      2160      1694       592       585
dram[5]:        591       592       604       601       582       583       610       604       607       595       588       577      2151      1826       594       593
maximum mf latency per bank:
dram[0]:        739       741       652       649       659       692       664       663       655       602       678       676       648       702       676       701
dram[1]:        639       639       651       657       637       680       653       716       655       609       664       643       704       674       716       732
dram[2]:        675       659       636       652       677       633       697       690       693       611       584       631       681       683       729       761
dram[3]:        642       633       690       712       708       628       718       731       765       759       644       655       651       726       688       661
dram[4]:        662       649       654       637       641       657       691       685       612       653       659       637       670       624       751       711
dram[5]:        676       648       694       640       617       650       674       687       666       618       719       656       782       626       695       730
Memory Partition 0: 
Cache L2_bank_000:
MSHR contents

Cache L2_bank_001:
MSHR contents

In Dram Latency Queue (total = 0): 
DRAM[0]: 16 bks, busW=4 BL=8 CL=12, tRRD=2 tCCD=6, tRCD=12 tRAS=28 tRP=12 tRC=40
n_cmd=2286779 n_nop=2072194 n_act=20797 n_pre=20781 n_req=86514 n_rd=131214 n_write=41793 bw_util=0.1513
n_activity=1039589 dram_eff=0.3328
bk0: 8144a 2215454i bk1: 8124a 2214604i bk2: 8064a 2204602i bk3: 8064a 2203141i bk4: 8088a 2212846i bk5: 8100a 2212153i bk6: 8256a 2216183i bk7: 8256a 2212469i bk8: 8256a 2213532i bk9: 8256a 2214766i bk10: 8256a 2203984i bk11: 8256a 2200947i bk12: 8288a 2211401i bk13: 8294a 2210385i bk14: 8256a 2214539i bk15: 8256a 2213956i 
dram_util_bins: 0 0 0 0 0 0 0 0 0 0
dram_eff_bins: 0 0 0 0 0 0 0 0 0 0
mrqq: max=16 avg=0.459875
Memory Partition 1: 
Cache L2_bank_002:
MSHR contents

Cache L2_bank_003:
MSHR contents

In Dram Latency Queue (total = 0): 
DRAM[1]: 16 bks, busW=4 BL=8 CL=12, tRRD=2 tCCD=6, tRCD=12 tRAS=28 tRP=12 tRC=40
n_cmd=2286779 n_nop=2071376 n_act=21210 n_pre=21194 n_req=86510 n_rd=131210 n_write=41789 bw_util=0.1513
n_activity=1039329 dram_eff=0.3329
bk0: 8140a 2214337i bk1: 8124a 2212436i bk2: 8064a 2206782i bk3: 8064a 2202622i bk4: 8088a 2212131i bk5: 8100a 2210423i bk6: 8256a 2213661i bk7: 8256a 2212228i bk8: 8256a 2213619i bk9: 8256a 2212819i bk10: 8256a 2201889i bk11: 8256a 2201611i bk12: 8288a 2210832i bk13: 8294a 2209412i bk14: 8256a 2213893i bk15: 8256a 2212210i 
dram_util_bins: 0 0 0 0 0 0 0 0 0 0
dram_eff_bins: 0 0 0 0 0 0 0 0 0 0
mrqq: max=16 avg=0.455548
Memory Partition 2: 
Cache L2_bank_004:
MSHR contents

Cache L2_bank_005:
MSHR contents

In Dram Latency Queue (total = 0): 
DRAM[2]: 16 bks, busW=4 BL=8 CL=12, tRRD=2 tCCD=6, tRCD=12 tRAS=28 tRP=12 tRC=40
n_cmd=2286779 n_nop=2072170 n_act=20813 n_pre=20797 n_req=86510 n_rd=131206 n_write=41793 bw_util=0.1513
n_activity=1038073 dram_eff=0.3333
bk0: 8142a 2215273i bk1: 8124a 2215035i bk2: 8064a 2204457i bk3: 8064a 2202763i bk4: 8088a 2213275i bk5: 8100a 2211343i bk6: 8256a 2213034i bk7: 8256a 2213633i bk8: 8256a 2215598i bk9: 8256a 2213579i bk10: 8256a 2203008i bk11: 8256a 2201057i bk12: 8292a 2211099i bk13: 8284a 2209018i bk14: 8256a 2214228i bk15: 8256a 2213082i 
dram_util_bins: 0 0 0 0 0 0 0 0 0 0
dram_eff_bins: 0 0 0 0 0 0 0 0 0 0
mrqq: max=16 avg=0.460875
Memory Partition 3: 
Cache L2_bank_006:
MSHR contents

Cache L2_bank_007:
MSHR contents

In Dram Latency Queue (total = 0): 
DRAM[3]: 16 bks, busW=4 BL=8 CL=12, tRRD=2 tCCD=6, tRCD=12 tRAS=28 tRP=12 tRC=40
n_cmd=2286779 n_nop=2072149 n_act=20821 n_pre=20805 n_req=86513 n_rd=131210 n_write=41794 bw_util=0.1513
n_activity=1036302 dram_eff=0.3339
bk0: 8140a 2216577i bk1: 8124a 2213759i bk2: 8064a 2205057i bk3: 8064a 2204548i bk4: 8088a 2213314i bk5: 8100a 2209916i bk6: 8256a 2213826i bk7: 8256a 2212126i bk8: 8256a 2214130i bk9: 8256a 2213688i bk10: 8256a 2203831i bk11: 8256a 2202809i bk12: 8298a 2211333i bk13: 8284a 2208298i bk14: 8256a 2214044i bk15: 8256a 2214051i 
dram_util_bins: 0 0 0 0 0 0 0 0 0 0
dram_eff_bins: 0 0 0 0 0 0 0 0 0 0
mrqq: max=16 avg=0.460855
Memory Partition 4: 
Cache L2_bank_008:
MSHR contents

Cache L2_bank_009:
MSHR contents

In Dram Latency Queue (total = 0): 
DRAM[4]: 16 bks, busW=4 BL=8 CL=12, tRRD=2 tCCD=6, tRCD=12 tRAS=28 tRP=12 tRC=40
n_cmd=2286779 n_nop=2071676 n_act=21062 n_pre=21046 n_req=86508 n_rd=131206 n_write=41789 bw_util=0.1513
n_activity=1039210 dram_eff=0.3329
bk0: 8130a 2214557i bk1: 8124a 2211272i bk2: 8064a 2205091i bk3: 8064a 2203872i bk4: 8100a 2213002i bk5: 8100a 2210064i bk6: 8256a 2214388i bk7: 8256a 2213304i bk8: 8256a 2215066i bk9: 8256a 2212496i bk10: 8256a 2202590i bk11: 8256a 2202147i bk12: 8294a 2211887i bk13: 8282a 2210180i bk14: 8256a 2214791i bk15: 8256a 2212121i 
dram_util_bins: 0 0 0 0 0 0 0 0 0 0
dram_eff_bins: 0 0 0 0 0 0 0 0 0 0
mrqq: max=16 avg=0.461136
Memory Partition 5: 
Cache L2_bank_010:
MSHR contents

Cache L2_bank_011:
MSHR contents

In Dram Latency Queue (total = 0): 
DRAM[5]: 16 bks, busW=4 BL=8 CL=12, tRRD=2 tCCD=6, tRCD=12 tRAS=28 tRP=12 tRC=40
n_cmd=2286779 n_nop=2072112 n_act=20838 n_pre=20822 n_req=86514 n_rd=131210 n_write=41797 bw_util=0.1513
n_activity=1037967 dram_eff=0.3334
bk0: 8124a 2215947i bk1: 8124a 2214106i bk2: 8064a 2204687i bk3: 8064a 2203661i bk4: 8100a 2212459i bk5: 8100a 2210890i bk6: 8256a 2213993i bk7: 8256a 2212189i bk8: 8256a 2215067i bk9: 8256a 2213450i bk10: 8256a 2204014i bk11: 8256a 2201697i bk12: 8298a 2211559i bk13: 8288a 2208998i bk14: 8256a 2214030i bk15: 8256a 2212802i 
dram_util_bins: 0 0 0 0 0 0 0 0 0 0
dram_eff_bins: 0 0 0 0 0 0 0 0 0 0
mrqq: max=16 avg=0.460564

========= L2 cache stats =========
L2_cache_bank[0]: Access = 133081, Miss = 32804, Miss_rate = 0.246, Pending_hits = 5250, Reservation_fails = 450
L2_cache_bank[1]: Access = 141875, Miss = 32803, Miss_rate = 0.231, Pending_hits = 5272, Reservation_fails = 0
L2_cache_bank[2]: Access = 133114, Miss = 32802, Miss_rate = 0.246, Pending_hits = 5231, Reservation_fails = 125
L2_cache_bank[3]: Access = 135286, Miss = 32803, Miss_rate = 0.242, Pending_hits = 5165, Reservation_fails = 0
L2_cache_bank[4]: Access = 139683, Miss = 32805, Miss_rate = 0.235, Pending_hits = 5251, Reservation_fails = 266
L2_cache_bank[5]: Access = 132943, Miss = 32798, Miss_rate = 0.247, Pending_hits = 5305, Reservation_fails = 0
L2_cache_bank[6]: Access = 142034, Miss = 32807, Miss_rate = 0.231, Pending_hits = 5223, Reservation_fails = 218
L2_cache_bank[7]: Access = 133075, Miss = 32798, Miss_rate = 0.246, Pending_hits = 5216, Reservation_fails = 0
L2_cache_bank[8]: Access = 141916, Miss = 32806, Miss_rate = 0.231, Pending_hits = 5347, Reservation_fails = 0
L2_cache_bank[9]: Access = 126347, Miss = 32797, Miss_rate = 0.260, Pending_hits = 5239, Reservation_fails = 0
L2_cache_bank[10]: Access = 142003, Miss = 32805, Miss_rate = 0.231, Pending_hits = 5212, Reservation_fails = 0
L2_cache_bank[11]: Access = 130811, Miss = 32800, Miss_rate = 0.251, Pending_hits = 5164, Reservation_fails = 0
L2_total_cache_accesses = 1632168
L2_total_cache_misses = 393628
L2_total_cache_miss_rate = 0.2412
L2_total_cache_pending_hits = 62875
L2_total_cache_reservation_fails = 1059
L2_total_cache_breakdown:
	L2_cache_stats_breakdown[GLOBAL_ACC_R][HIT] = 134956
	L2_cache_stats_breakdown[GLOBAL_ACC_R][HIT_RESERVED] = 62722
	L2_cache_stats_breakdown[GLOBAL_ACC_R][MISS] = 393487
	L2_cache_stats_breakdown[CONST_ACC_R][HIT] = 7
	L2_cache_stats_breakdown[CONST_ACC_R][HIT_RESERVED] = 6
	L2_cache_stats_breakdown[CONST_ACC_R][MISS] = 2
	L2_cache_stats_breakdown[CONST_ACC_R][RESERVATION_FAIL] = 218
	L2_cache_stats_breakdown[GLOBAL_ACC_W][HIT] = 1040643
	L2_cache_stats_breakdown[GLOBAL_ACC_W][HIT_RESERVED] = 123
	L2_cache_stats_breakdown[GLOBAL_ACC_W][MISS] = 130
	L2_cache_stats_breakdown[INST_ACC_R][HIT] = 59
	L2_cache_stats_breakdown[INST_ACC_R][HIT_RESERVED] = 24
	L2_cache_stats_breakdown[INST_ACC_R][MISS] = 9
	L2_cache_stats_breakdown[INST_ACC_R][RESERVATION_FAIL] = 841
L2_cache_data_port_util = 0.178
L2_cache_fill_port_util = 0.075

icnt_total_pkts_mem_to_simt=3997226
icnt_total_pkts_simt_to_mem=4353192
LD_mem_lat_dist  0 0 0 0 0 0 0 0 0 0 0 0 0 0 0 0 0 0 0 0 0 0 0 0 0 0 0
ST_mem_lat_dist  0 0 0 0 0 0 0 0 0 0 0 0 0 0 0 0 0 0 0 0 0 0 0 0 0 0 0
----------------------------Interconnect-DETAILS--------------------------------
Class 0:
Packet latency average = 37.4237
	minimum = 6
	maximum = 442
Network latency average = 23.9753
	minimum = 6
	maximum = 421
Slowest packet = 2004353
Flit latency average = 20.0795
	minimum = 6
	maximum = 419
Slowest flit = 5078415
Fragmentation average = 0.0463307
	minimum = 0
	maximum = 265
Injected packet rate average = 0.139519
	minimum = 0.123763 (at node 10)
	maximum = 0.158233 (at node 21)
Accepted packet rate average = 0.139519
	minimum = 0.123763 (at node 10)
	maximum = 0.158233 (at node 21)
Injected flit rate average = 0.362341
	minimum = 0.338206 (at node 10)
	maximum = 0.392729 (at node 21)
Accepted flit rate average= 0.362341
	minimum = 0.304702 (at node 10)
	maximum = 0.430193 (at node 21)
Injected packet length average = 2.59707
Accepted packet length average = 2.59707
Total in-flight flits = 0 (0 measured)
====== Overall Traffic Statistics ======
====== Traffic class 0 ======
Packet latency average = 20.5969 (3 samples)
	minimum = 6 (3 samples)
	maximum = 191.333 (3 samples)
Network latency average = 15.0507 (3 samples)
	minimum = 6 (3 samples)
	maximum = 177 (3 samples)
Flit latency average = 12.8725 (3 samples)
	minimum = 6 (3 samples)
	maximum = 174 (3 samples)
Fragmentation average = 0.0154436 (3 samples)
	minimum = 0 (3 samples)
	maximum = 88.3333 (3 samples)
Injected packet rate average = 0.0770307 (3 samples)
	minimum = 0.0412543 (3 samples)
	maximum = 0.104295 (3 samples)
Accepted packet rate average = 0.0770307 (3 samples)
	minimum = 0.0412543 (3 samples)
	maximum = 0.104295 (3 samples)
Injected flit rate average = 0.197682 (3 samples)
	minimum = 0.112735 (3 samples)
	maximum = 0.264984 (3 samples)
Accepted flit rate average = 0.197682 (3 samples)
	minimum = 0.101567 (3 samples)
	maximum = 0.269111 (3 samples)
Injected packet size average = 2.56627 (3 samples)
Accepted packet size average = 2.56627 (3 samples)
Hops average = 1 (3 samples)
----------------------------END-of-Interconnect-DETAILS-------------------------


gpgpu_simulation_time = 0 days, 0 hrs, 13 min, 11 sec (791 sec)
gpgpu_simulation_rate = 334194 (inst/sec)
gpgpu_simulation_rate = 2221 (cycle/sec)
GPGPU-Sim: synchronize waiting for inactive GPU simulation
GPGPU-Sim API: Stream Manager State
GPGPU-Sim: detected inactive GPU simulation thread

GPGPU-Sim PTX: cudaLaunch for 0x0x401690 (mode=performance simulation) on stream 0
GPGPU-Sim PTX: pushing kernel '_Z11corr_kernelPfS_' to stream 0, gridDim= (8,1,1) blockDim = (256,1,1) 
####  CUstream_st::push: Start pushing kernel: corr_kernel  ####
####  CUstream_st::push: corr_kernel encountered  ####
####  CUstream_st::push: Closing stream ####
GPGPU-Sim: synchronize waiting for inactive GPU simulation
GPGPU-Sim API: Stream Manager State
GPGPU-Sim: detected inactive GPU simulation thread
GPU Runtime: 790.761525s
CPU Runtime: 12.641558s
Non-Matching CPU-GPU Outputs Beyond Error Threshold of 1.05 Percent: 4194303
