

        *** GPGPU-Sim Simulator Version 3.2.2  [build 0] ***


GPGPU-Sim PTX: simulation mode 0 (can change with PTX_SIM_MODE_FUNC environment variable:
               1=functional simulation only, 0=detailed performance simulator)
GPGPU-Sim: Configuration options:

-network_mode                           1 # Interconnection network mode
-inter_config_file   config_fermi_islip.icnt # Interconnection network config file
-gpgpu_ptx_use_cuobjdump                    1 # Use cuobjdump to extract ptx and sass from binaries
-gpgpu_experimental_lib_support                    0 # Try to extract code from cuda libraries [Broken because of unknown cudaGetExportTable]
-gpgpu_ptx_convert_to_ptxplus                    0 # Convert SASS (native ISA) to ptxplus and run ptxplus
-gpgpu_ptx_force_max_capability                   20 # Force maximum compute capability
-gpgpu_ptx_inst_debug_to_file                    0 # Dump executed instructions' debug information to file
-gpgpu_ptx_inst_debug_file       inst_debug.txt # Executed instructions' debug output file
-gpgpu_ptx_inst_debug_thread_uid                    1 # Thread UID for executed instructions' debug output
-gpgpu_simd_model                       1 # 1 = post-dominator
-gpgpu_shader_core_pipeline              1536:32 # shader core pipeline config, i.e., {<nthread>:<warpsize>}
-gpgpu_tex_cache:l1  4:128:24,L:R:m:N:L,F:128:4,128:2 # per-shader L1 texture cache  (READ-ONLY) config  {<nsets>:<bsize>:<assoc>,<rep>:<wr>:<alloc>:<wr_alloc>,<mshr>:<N>:<merge>,<mq>:<rf>}
-gpgpu_const_cache:l1 64:64:2,L:R:f:N:L,A:2:32,4 # per-shader L1 constant memory cache  (READ-ONLY) config  {<nsets>:<bsize>:<assoc>,<rep>:<wr>:<alloc>:<wr_alloc>,<mshr>:<N>:<merge>,<mq>} 
-gpgpu_cache:il1     4:128:4,L:R:f:N:L,A:2:32,4 # shader L1 instruction cache config  {<nsets>:<bsize>:<assoc>,<rep>:<wr>:<alloc>:<wr_alloc>,<mshr>:<N>:<merge>,<mq>} 
-gpgpu_cache:dl1     32:128:4,L:L:m:N:H,A:32:8,8 # per-shader L1 data cache config  {<nsets>:<bsize>:<assoc>,<rep>:<wr>:<alloc>:<wr_alloc>,<mshr>:<N>:<merge>,<mq> | none}
-gpgpu_cache:dl1PrefL1                 none # per-shader L1 data cache config  {<nsets>:<bsize>:<assoc>,<rep>:<wr>:<alloc>:<wr_alloc>,<mshr>:<N>:<merge>,<mq> | none}
-gpgpu_cache:dl1PreShared                 none # per-shader L1 data cache config  {<nsets>:<bsize>:<assoc>,<rep>:<wr>:<alloc>:<wr_alloc>,<mshr>:<N>:<merge>,<mq> | none}
-gmem_skip_L1D                          0 # global memory access skip L1D cache (implements -Xptxas -dlcm=cg, default=no skip)
-gpgpu_perfect_mem                      0 # enable perfect memory mode (no cache miss)
-n_regfile_gating_group                    4 # group of lanes that should be read/written together)
-gpgpu_clock_gated_reg_file                    0 # enable clock gated reg file for power calculations
-gpgpu_clock_gated_lanes                    0 # enable clock gated lanes for power calculations
-gpgpu_shader_registers                32768 # Number of registers per shader core. Limits number of concurrent CTAs. (default 8192)
-gpgpu_shader_cta                       8 # Maximum number of concurrent CTAs in shader (default 8)
-gpgpu_num_cta_barriers                   16 # Maximum number of named barriers per CTA (default 16)
-gpgpu_n_clusters                      15 # number of processing clusters
-gpgpu_n_cores_per_cluster                    1 # number of simd cores per cluster
-gpgpu_n_cluster_ejection_buffer_size                    8 # number of packets in ejection buffer
-gpgpu_n_ldst_response_buffer_size                    2 # number of response packets in ld/st unit ejection buffer
-gpgpu_shmem_size                   16384 # Size of shared memory per shader core (default 16kB)
-gpgpu_shmem_size                   49152 # Size of shared memory per shader core (default 16kB)
-gpgpu_shmem_size_PrefL1                16384 # Size of shared memory per shader core (default 16kB)
-gpgpu_shmem_size_PrefShared                16384 # Size of shared memory per shader core (default 16kB)
-gpgpu_shmem_num_banks                   32 # Number of banks in the shared memory in each shader core (default 16)
-gpgpu_shmem_limited_broadcast                    0 # Limit shared memory to do one broadcast per cycle (default on)
-gpgpu_shmem_warp_parts                    1 # Number of portions a warp is divided into for shared memory bank conflict check 
-gpgpu_warpdistro_shader                   -1 # Specify which shader core to collect the warp size distribution from
-gpgpu_warp_issue_shader                    0 # Specify which shader core to collect the warp issue distribution from
-gpgpu_local_mem_map                    1 # Mapping from local memory space address to simulated GPU physical address space (default = enabled)
-gpgpu_num_reg_banks                   16 # Number of register banks (default = 8)
-gpgpu_reg_bank_use_warp_id                    0 # Use warp ID in mapping registers to banks (default = off)
-gpgpu_operand_collector_num_units_sp                    6 # number of collector units (default = 4)
-gpgpu_operand_collector_num_units_sfu                    8 # number of collector units (default = 4)
-gpgpu_operand_collector_num_units_mem                    2 # number of collector units (default = 2)
-gpgpu_operand_collector_num_units_gen                    0 # number of collector units (default = 0)
-gpgpu_operand_collector_num_in_ports_sp                    2 # number of collector unit in ports (default = 1)
-gpgpu_operand_collector_num_in_ports_sfu                    1 # number of collector unit in ports (default = 1)
-gpgpu_operand_collector_num_in_ports_mem                    1 # number of collector unit in ports (default = 1)
-gpgpu_operand_collector_num_in_ports_gen                    0 # number of collector unit in ports (default = 0)
-gpgpu_operand_collector_num_out_ports_sp                    2 # number of collector unit in ports (default = 1)
-gpgpu_operand_collector_num_out_ports_sfu                    1 # number of collector unit in ports (default = 1)
-gpgpu_operand_collector_num_out_ports_mem                    1 # number of collector unit in ports (default = 1)
-gpgpu_operand_collector_num_out_ports_gen                    0 # number of collector unit in ports (default = 0)
-gpgpu_coalesce_arch                   13 # Coalescing arch (default = 13, anything else is off for now)
-gpgpu_num_sched_per_core                    2 # Number of warp schedulers per core
-gpgpu_max_insn_issue_per_warp                    1 # Max number of instructions that can be issued per warp in one cycle by scheduler
-gpgpu_simt_core_sim_order                    1 # Select the simulation order of cores in a cluster (0=Fix, 1=Round-Robin)
-gpgpu_pipeline_widths        2,1,1,2,1,1,2 # Pipeline widths ID_OC_SP,ID_OC_SFU,ID_OC_MEM,OC_EX_SP,OC_EX_SFU,OC_EX_MEM,EX_WB
-gpgpu_num_sp_units                     2 # Number of SP units (default=1)
-gpgpu_num_sfu_units                    1 # Number of SF units (default=1)
-gpgpu_num_mem_units                    1 # Number if ldst units (default=1) WARNING: not hooked up to anything
-gpgpu_scheduler                      lrr # Scheduler configuration: < lrr | gto | two_level_active > If two_level_active:<num_active_warps>:<inner_prioritization>:<outer_prioritization>For complete list of prioritization values see shader.h enum scheduler_prioritization_typeDefault: gto
-gpgpu_dram_scheduler                    1 # 0 = fifo, 1 = FR-FCFS (defaul)
-gpgpu_dram_partition_queues              8:8:8:8 # i2$:$2d:d2$:$2i
-l2_ideal                               0 # Use a ideal L2 cache that always hit
-gpgpu_cache:dl2     64:128:8,L:B:m:W:L,A:32:4,4:0,32 # unified banked L2 data cache config  {<nsets>:<bsize>:<assoc>,<rep>:<wr>:<alloc>:<wr_alloc>,<mshr>:<N>:<merge>,<mq>}
-gpgpu_cache:dl2_texture_only                    0 # L2 cache used for texture only
-gpgpu_n_mem                            6 # number of memory modules (e.g. memory controllers) in gpu
-gpgpu_n_sub_partition_per_mchannel                    2 # number of memory subpartition in each memory module
-gpgpu_n_mem_per_ctrlr                    2 # number of memory chips per memory controller
-gpgpu_memlatency_stat                   14 # track and display latency statistics 0x2 enables MC, 0x4 enables queue logs
-gpgpu_frfcfs_dram_sched_queue_size                   16 # 0 = unlimited (default); # entries per chip
-gpgpu_dram_return_queue_size                  116 # 0 = unlimited (default); # entries per chip
-gpgpu_dram_buswidth                    4 # default = 4 bytes (8 bytes per cycle at DDR)
-gpgpu_dram_burst_length                    8 # Burst length of each DRAM request (default = 4 data bus cycle)
-dram_data_command_freq_ratio                    4 # Frequency ratio between DRAM data bus and command bus (default = 2 times, i.e. DDR)
-gpgpu_dram_timing_opt nbk=16:CCD=2:RRD=6:RCD=12:RAS=28:RP=12:RC=40: CL=12:WL=4:CDLR=5:WR=12:nbkgrp=4:CCDL=3:RTPL=2 # DRAM timing parameters = {nbk:tCCD:tRRD:tRCD:tRAS:tRP:tRC:CL:WL:tCDLR:tWR:nbkgrp:tCCDL:tRTPL}
-rop_latency                          120 # ROP queue latency (default 85)
-dram_latency                         100 # DRAM latency (default 30)
-gpgpu_mem_addr_mapping dramid@8;00000000.00000000.00000000.00000000.0000RRRR.RRRRRRRR.BBBCCCCB.CCSSSSSS # mapping memory address to dram model {dramid@<start bit>;<memory address map>}
-gpgpu_mem_addr_test                    0 # run sweep test to check address mapping for aliased address
-gpgpu_mem_address_mask                    1 # 0 = old addressing mask, 1 = new addressing mask, 2 = new add. mask + flipped bank sel and chip sel bits
-gpuwattch_xml_file  gpuwattch_gtx480.xml # GPUWattch XML file
-power_simulation_enabled                    0 # Turn on power simulator (1=On, 0=Off)
-power_per_cycle_dump                    0 # Dump detailed power output each cycle
-power_trace_enabled                    0 # produce a file for the power trace (1=On, 0=Off)
-power_trace_zlevel                     6 # Compression level of the power trace output log (0=no comp, 9=highest)
-steady_power_levels_enabled                    0 # produce a file for the steady power levels (1=On, 0=Off)
-steady_state_definition                  8:4 # allowed deviation:number of samples
-gpgpu_max_cycle                        0 # terminates gpu simulation early (0 = no limit)
-gpgpu_max_insn                         0 # terminates gpu simulation early (0 = no limit)
-gpgpu_max_cta                          0 # terminates gpu simulation early (0 = no limit)
-gpgpu_runtime_stat             500000000 # display runtime statistics such as dram utilization {<freq>:<flag>}
-liveness_message_freq                    1 # Minimum number of seconds between simulation liveness messages (0 = always print)
-gpgpu_flush_l1_cache                    0 # Flush L1 cache at the end of each kernel call
-gpgpu_flush_l2_cache                    0 # Flush L2 cache at the end of each kernel call
-gpgpu_deadlock_detect                    1 # Stop the simulation at deadlock (1=on (default), 0=off)
-gpgpu_ptx_instruction_classification                    0 # if enabled will classify ptx instruction types per kernel (Max 255 kernels now)
-gpgpu_ptx_sim_mode                     0 # Select between Performance (default) or Functional simulation (1)
-gpgpu_clock_domains 730.0:730.0:730.0:950.0 # Clock Domain Frequencies in MhZ {<Core Clock>:<ICNT Clock>:<L2 Clock>:<DRAM Clock>}
-gpgpu_max_concurrent_kernel                    8 # maximum kernels that can run concurrently on GPU
-gpgpu_cflog_interval                    0 # Interval between each snapshot in control flow logger
-visualizer_enabled                     0 # Turn on visualizer output (1=On, 0=Off)
-visualizer_outputfile                 NULL # Specifies the output log file for visualizer
-visualizer_zlevel                      6 # Compression level of the visualizer output log (0=no comp, 9=highest)
-trace_enabled                          0 # Turn on traces
-trace_components                    none # comma seperated list of traces to enable. Complete list found in trace_streams.tup. Default none
-trace_sampling_core                    0 # The core which is printed using CORE_DPRINTF. Default 0
-trace_sampling_memory_partition                   -1 # The memory partition which is printed using MEMPART_DPRINTF. Default -1 (i.e. all)
-enable_ptx_file_line_stats                    0 # Turn on PTX source line statistic profiling. (1 = On)
-ptx_line_stats_filename gpgpu_inst_stats.txt # Output file for PTX source line statistics.
-save_embedded_ptx                      0 # saves ptx files embedded in binary as <n>.ptx
-keep                                   0 # keep intermediate files created by GPGPU-Sim when interfacing with external programs
-gpgpu_ptx_save_converted_ptxplus                    0 # Saved converted ptxplus to a file
-ptx_opcode_latency_int         4,13,4,5,145 # Opcode latencies for integers <ADD,MAX,MUL,MAD,DIV>Default 1,1,19,25,145
-ptx_opcode_latency_fp          4,13,4,5,39 # Opcode latencies for single precision floating points <ADD,MAX,MUL,MAD,DIV>Default 1,1,1,1,30
-ptx_opcode_latency_dp         8,19,8,8,330 # Opcode latencies for double precision floating points <ADD,MAX,MUL,MAD,DIV>Default 8,8,8,8,335
-ptx_opcode_initiation_int            1,2,2,1,8 # Opcode initiation intervals for integers <ADD,MAX,MUL,MAD,DIV>Default 1,1,4,4,32
-ptx_opcode_initiation_fp            1,2,1,1,4 # Opcode initiation intervals for single precision floating points <ADD,MAX,MUL,MAD,DIV>Default 1,1,1,1,5
-ptx_opcode_initiation_dp         8,16,8,8,130 # Opcode initiation intervals for double precision floating points <ADD,MAX,MUL,MAD,DIV>Default 8,8,8,8,130
DRAM Timing Options:
nbk                                    16 # number of banks
CCD                                     2 # column to column delay
RRD                                     6 # minimal delay between activation of rows in different banks
RCD                                    12 # row to column delay
RAS                                    28 # time needed to activate row
RP                                     12 # time needed to precharge (deactivate) row
RC                                     40 # row cycle time
CDLR                                    5 # switching from write to read (changes tWTR)
WR                                     12 # last data-in to row precharge
CL                                     12 # CAS latency
WL                                      4 # Write latency
nbkgrp                                  4 # number of bank groups
CCDL                                    3 # column to column delay between accesses to different bank groups
RTPL                                    2 # read to precharge delay between accesses to different bank groups
Total number of memory sub partition = 12
addr_dec_mask[CHIP]  = 0000000000000000 	high:64 low:0
addr_dec_mask[BK]    = 000000000000e100 	high:16 low:8
addr_dec_mask[ROW]   = 000000000fff0000 	high:28 low:16
addr_dec_mask[COL]   = 0000000000001eff 	high:13 low:0
addr_dec_mask[BURST] = 000000000000003f 	high:6 low:0
sub_partition_id_mask = 0000000000000100
GPGPU-Sim uArch: clock freqs: 730000000.000000:730000000.000000:730000000.000000:950000000.000000
GPGPU-Sim uArch: clock periods: 0.00000000136986301370:0.00000000136986301370:0.00000000136986301370:0.00000000105263157895
*** Initializing Memory Statistics ***
GPGPU-Sim uArch: interconnect node map (shaderID+MemID to icntID)
GPGPU-Sim uArch: Memory nodes ID start from index: 15
GPGPU-Sim uArch:    0   1   2   3   4
GPGPU-Sim uArch:    5   6   7   8   9
GPGPU-Sim uArch:   10  11  12  13  14
GPGPU-Sim uArch:   15  16  17  18  19
GPGPU-Sim uArch:   20  21  22  23  24
GPGPU-Sim uArch:   25  26
GPGPU-Sim uArch: interconnect node reverse map (icntID to shaderID+MemID)
GPGPU-Sim uArch: Memory nodes start from ID: 15
GPGPU-Sim uArch:    0   1   2   3   4
GPGPU-Sim uArch:    5   6   7   8   9
GPGPU-Sim uArch:   10  11  12  13  14
GPGPU-Sim uArch:   15  16  17  18  19
GPGPU-Sim uArch:   20  21  22  23  24
GPGPU-Sim uArch:   25  26
22de70c9f0d27b975165c7d09cfdb58d  /home/z/Workspace/model_gpu_cache/build/covar_sim
GPGPU-Sim uArch: performance model initialization complete.
GPGPU-Sim PTX: __cudaRegisterFatBinary, fat_cubin_handle = 1, filename=covariance.cu
self exe links to: /home/z/Workspace/model_gpu_cache/build/covar_sim
Running md5sum using "md5sum /home/z/Workspace/model_gpu_cache/build/covar_sim "
Running cuobjdump using "$CUDA_INSTALL_PATH/bin/cuobjdump -ptx -elf -sass /home/z/Workspace/model_gpu_cache/build/covar_sim > _cuobjdump_complete_output_X79W9R"
Parsing file _cuobjdump_complete_output_X79W9R
######### cuobjdump parser ########
## Adding new section ELF
Adding arch: sm_20
Adding identifier: covariance.cu
## Adding new section PTX
Adding ptx filename: _cuobjdump_1.ptx
Adding arch: sm_20
Adding identifier: covariance.cu
Done parsing!!!
GPGPU-Sim PTX: __cudaRegisterFunction _Z12covar_kernelPfS_ : hostFun 0x0x4013e0, fat_cubin_handle = 1
GPGPU-Sim PTX: instruction assembly for function '_Z11mean_kernelPfS_'...   done.
GPGPU-Sim PTX: finding reconvergence points for '_Z11mean_kernelPfS_'...
GPGPU-Sim PTX: Finding dominators for '_Z11mean_kernelPfS_'...
GPGPU-Sim PTX: Finding immediate dominators for '_Z11mean_kernelPfS_'...
GPGPU-Sim PTX: Finding postdominators for '_Z11mean_kernelPfS_'...
GPGPU-Sim PTX: Finding immediate postdominators for '_Z11mean_kernelPfS_'...
GPGPU-Sim PTX: pre-decoding instructions for '_Z11mean_kernelPfS_'...
GPGPU-Sim PTX: reconvergence points for _Z11mean_kernelPfS_...
GPGPU-Sim PTX:  1 (potential) branch divergence @  PC=0x038 (_1.ptx:68) @%p1 bra $Lt_0_2050;
GPGPU-Sim PTX:    immediate post dominator      @  PC=0x0f8 (_1.ptx:99) exit;
GPGPU-Sim PTX:  2 (potential) branch divergence @  PC=0x0d8 (_1.ptx:92) @%p2 bra $Lt_0_3074;
GPGPU-Sim PTX:    immediate post dominator      @  PC=0x0e0 (_1.ptx:94) mov.f32 %f4, 0f4a442e10;     // 3.21421e+06
GPGPU-Sim PTX: ... end of reconvergence points for _Z11mean_kernelPfS_
GPGPU-Sim PTX: ... done pre-decoding instructions for '_Z11mean_kernelPfS_'.
GPGPU-Sim PTX: instruction assembly for function '_Z13reduce_kernelPfS_'...   done.
GPGPU-Sim PTX: finding reconvergence points for '_Z13reduce_kernelPfS_'...
GPGPU-Sim PTX: Finding dominators for '_Z13reduce_kernelPfS_'...
GPGPU-Sim PTX: Finding immediate dominators for '_Z13reduce_kernelPfS_'...
GPGPU-Sim PTX: Finding postdominators for '_Z13reduce_kernelPfS_'...
GPGPU-Sim PTX: Finding immediate postdominators for '_Z13reduce_kernelPfS_'...
GPGPU-Sim PTX: pre-decoding instructions for '_Z13reduce_kernelPfS_'...
GPGPU-Sim PTX: reconvergence points for _Z13reduce_kernelPfS_...
GPGPU-Sim PTX:  1 (potential) branch divergence @  PC=0x1c0 (_1.ptx:137) @%p1 bra $Lt_1_1538;
GPGPU-Sim PTX:    immediate post dominator      @  PC=0x238 (_1.ptx:155) exit;
GPGPU-Sim PTX: ... end of reconvergence points for _Z13reduce_kernelPfS_
GPGPU-Sim PTX: ... done pre-decoding instructions for '_Z13reduce_kernelPfS_'.
GPGPU-Sim PTX: instruction assembly for function '_Z12covar_kernelPfS_'...   done.
GPGPU-Sim PTX: finding reconvergence points for '_Z12covar_kernelPfS_'...
GPGPU-Sim PTX: Finding dominators for '_Z12covar_kernelPfS_'...
GPGPU-Sim PTX: Finding immediate dominators for '_Z12covar_kernelPfS_'...
GPGPU-Sim PTX: Finding postdominators for '_Z12covar_kernelPfS_'...
GPGPU-Sim PTX: Finding immediate postdominators for '_Z12covar_kernelPfS_'...
GPGPU-Sim PTX: pre-decoding instructions for '_Z12covar_kernelPfS_'...
GPGPU-Sim PTX: reconvergence points for _Z12covar_kernelPfS_...
GPGPU-Sim PTX:  1 (potential) branch divergence @  PC=0x278 (_1.ptx:176) @%p1 bra $Lt_2_3074;
GPGPU-Sim PTX:    immediate post dominator      @  PC=0x420 (_1.ptx:240) exit;
GPGPU-Sim PTX:  2 (potential) branch divergence @  PC=0x298 (_1.ptx:181) @%p2 bra $Lt_2_3586;
GPGPU-Sim PTX:    immediate post dominator      @  PC=0x420 (_1.ptx:240) exit;
GPGPU-Sim PTX:  3 (potential) branch divergence @  PC=0x3d0 (_1.ptx:226) @%p3 bra $Lt_2_4866;
GPGPU-Sim PTX:    immediate post dominator      @  PC=0x3d8 (_1.ptx:228) st.global.f32 [%rd10+4], %f1;
GPGPU-Sim PTX:  4 (potential) branch divergence @  PC=0x418 (_1.ptx:236) @%p4 bra $Lt_2_4098;
GPGPU-Sim PTX:    immediate post dominator      @  PC=0x420 (_1.ptx:240) exit;
GPGPU-Sim PTX: ... end of reconvergence points for _Z12covar_kernelPfS_
GPGPU-Sim PTX: ... done pre-decoding instructions for '_Z12covar_kernelPfS_'.
GPGPU-Sim PTX: finished parsing EMBEDDED .ptx file _1.ptx
Adding _cuobjdump_1.ptx with cubin handle 1
GPGPU-Sim PTX: extracting embedded .ptx to temporary file "_ptx_kBreos"
Running: cat _ptx_kBreos | sed 's/.version 1.5/.version 1.4/' | sed 's/, texmode_independent//' | sed 's/\(\.extern \.const\[1\] .b8 \w\+\)\[\]/\1\[1\]/' | sed 's/const\[.\]/const\[0\]/g' > _ptx2_xLMwC2
GPGPU-Sim PTX: generating ptxinfo using "$CUDA_INSTALL_PATH/bin/ptxas --gpu-name=sm_20 -v _ptx2_xLMwC2 --output-file  /dev/null 2> _ptx_kBreosinfo"
GPGPU-Sim PTX: Kernel '_Z12covar_kernelPfS_' : regs=21, lmem=0, smem=0, cmem=48
GPGPU-Sim PTX: Kernel '_Z13reduce_kernelPfS_' : regs=8, lmem=0, smem=0, cmem=48
GPGPU-Sim PTX: Kernel '_Z11mean_kernelPfS_' : regs=12, lmem=0, smem=0, cmem=60
GPGPU-Sim PTX: removing ptxinfo using "rm -f _ptx_kBreos _ptx2_xLMwC2 _ptx_kBreosinfo"
GPGPU-Sim PTX: loading globals with explicit initializers... 
GPGPU-Sim PTX: finished loading globals (0 bytes total).
GPGPU-Sim PTX: loading constants with explicit initializers...  done.
GPGPU-Sim PTX: __cudaRegisterFunction _Z13reduce_kernelPfS_ : hostFun 0x0x401440, fat_cubin_handle = 1
GPGPU-Sim PTX: __cudaRegisterFunction _Z11mean_kernelPfS_ : hostFun 0x0x4014a0, fat_cubin_handle = 1

GPGPU-Sim PTX: cudaLaunch for 0x0x4014a0 (mode=performance simulation) on stream 0
GPGPU-Sim PTX: pushing kernel '_Z11mean_kernelPfS_' to stream 0, gridDim= (8,1,1) blockDim = (256,1,1) 
####  CUstream_st::push: Start pushing kernel: mean_kernel  ####
kernel '_Z11mean_kernelPfS_' transfer to GPU hardware scheduler
GPGPU-Sim uArch: Shader 1 bind to kernel 1 '_Z11mean_kernelPfS_'
GPGPU-Sim uArch: CTA/core = 6, limited by: threads
GPGPU-Sim uArch: core:  1, cta: 0 initialized @(1,0)
GPGPU-Sim uArch: Shader 2 bind to kernel 1 '_Z11mean_kernelPfS_'
GPGPU-Sim uArch: core:  2, cta: 0 initialized @(1,0)
GPGPU-Sim uArch: Shader 3 bind to kernel 1 '_Z11mean_kernelPfS_'
GPGPU-Sim uArch: core:  3, cta: 0 initialized @(1,0)
GPGPU-Sim uArch: Shader 4 bind to kernel 1 '_Z11mean_kernelPfS_'
GPGPU-Sim uArch: core:  4, cta: 0 initialized @(1,0)
GPGPU-Sim uArch: Shader 5 bind to kernel 1 '_Z11mean_kernelPfS_'
GPGPU-Sim uArch: core:  5, cta: 0 initialized @(1,0)
GPGPU-Sim uArch: Shader 6 bind to kernel 1 '_Z11mean_kernelPfS_'
GPGPU-Sim uArch: core:  6, cta: 0 initialized @(1,0)
GPGPU-Sim uArch: Shader 7 bind to kernel 1 '_Z11mean_kernelPfS_'
GPGPU-Sim uArch: core:  7, cta: 0 initialized @(1,0)
GPGPU-Sim uArch: Shader 8 bind to kernel 1 '_Z11mean_kernelPfS_'
GPGPU-Sim uArch: core:  8, cta: 0 initialized @(1,0)
GPGPU-Sim uArch: Shader 4 finished CTA #0 (647628,0), 0 CTAs running
GPGPU-Sim uArch: Shader 4 empty (release kernel 1 '_Z11mean_kernelPfS_').
GPGPU-Sim uArch: Shader 3 finished CTA #0 (647792,0), 0 CTAs running
GPGPU-Sim uArch: Shader 3 empty (release kernel 1 '_Z11mean_kernelPfS_').
GPGPU-Sim uArch: Shader 8 finished CTA #0 (647931,0), 0 CTAs running
GPGPU-Sim uArch: Shader 8 empty (release kernel 1 '_Z11mean_kernelPfS_').
GPGPU-Sim uArch: Shader 6 finished CTA #0 (648043,0), 0 CTAs running
GPGPU-Sim uArch: Shader 6 empty (release kernel 1 '_Z11mean_kernelPfS_').
GPGPU-Sim uArch: Shader 5 finished CTA #0 (648096,0), 0 CTAs running
GPGPU-Sim uArch: Shader 5 empty (release kernel 1 '_Z11mean_kernelPfS_').
GPGPU-Sim uArch: Shader 1 finished CTA #0 (648188,0), 0 CTAs running
GPGPU-Sim uArch: Shader 1 empty (release kernel 1 '_Z11mean_kernelPfS_').
GPGPU-Sim uArch: Shader 2 finished CTA #0 (648304,0), 0 CTAs running
GPGPU-Sim uArch: Shader 2 empty (release kernel 1 '_Z11mean_kernelPfS_').
GPGPU-Sim uArch: Shader 7 finished CTA #0 (648355,0), 0 CTAs running
GPGPU-Sim uArch: Shader 7 empty (release kernel 1 '_Z11mean_kernelPfS_').
GPGPU-Sim uArch: GPU detected kernel '_Z11mean_kernelPfS_' finished on shader 7.
kernel_name = _Z11mean_kernelPfS_ 
kernel_launch_uid = 1 
gpu_sim_cycle = 648356
gpu_sim_insn = 29407232
gpu_ipc =      45.3566
gpu_tot_sim_cycle = 648356
gpu_tot_sim_insn = 29407232
gpu_tot_ipc =      45.3566
gpu_tot_issued_cta = 0
gpu_stall_dramfull = 75
gpu_stall_icnt2sh    = 14261
gpu_total_sim_rate=219456

========= Core cache stats =========
L1I_cache:
	L1I_total_cache_accesses = 525248
	L1I_total_cache_misses = 128
	L1I_total_cache_miss_rate = 0.0002
	L1I_total_cache_pending_hits = 0
	L1I_total_cache_reservation_fails = 0
L1D_cache:
	L1D_cache_core[0]: Access = 0, Miss = 0, Miss_rate = -nan, Pending_hits = 0, Reservation_fails = 0
	L1D_cache_core[1]: Access = 65056, Miss = 51181, Miss_rate = 0.787, Pending_hits = 13007, Reservation_fails = 131
	L1D_cache_core[2]: Access = 65056, Miss = 51168, Miss_rate = 0.787, Pending_hits = 12452, Reservation_fails = 53
	L1D_cache_core[3]: Access = 65056, Miss = 51168, Miss_rate = 0.787, Pending_hits = 13249, Reservation_fails = 132
	L1D_cache_core[4]: Access = 65056, Miss = 51168, Miss_rate = 0.787, Pending_hits = 13375, Reservation_fails = 138
	L1D_cache_core[5]: Access = 65056, Miss = 51171, Miss_rate = 0.787, Pending_hits = 13253, Reservation_fails = 133
	L1D_cache_core[6]: Access = 65056, Miss = 51168, Miss_rate = 0.787, Pending_hits = 13190, Reservation_fails = 127
	L1D_cache_core[7]: Access = 65056, Miss = 51168, Miss_rate = 0.787, Pending_hits = 13152, Reservation_fails = 195
	L1D_cache_core[8]: Access = 65056, Miss = 51168, Miss_rate = 0.787, Pending_hits = 13600, Reservation_fails = 94
	L1D_cache_core[9]: Access = 0, Miss = 0, Miss_rate = -nan, Pending_hits = 0, Reservation_fails = 0
	L1D_cache_core[10]: Access = 0, Miss = 0, Miss_rate = -nan, Pending_hits = 0, Reservation_fails = 0
	L1D_cache_core[11]: Access = 0, Miss = 0, Miss_rate = -nan, Pending_hits = 0, Reservation_fails = 0
	L1D_cache_core[12]: Access = 0, Miss = 0, Miss_rate = -nan, Pending_hits = 0, Reservation_fails = 0
	L1D_cache_core[13]: Access = 0, Miss = 0, Miss_rate = -nan, Pending_hits = 0, Reservation_fails = 0
	L1D_cache_core[14]: Access = 0, Miss = 0, Miss_rate = -nan, Pending_hits = 0, Reservation_fails = 0
	L1D_total_cache_accesses = 520448
	L1D_total_cache_misses = 409360
	L1D_total_cache_miss_rate = 0.7866
	L1D_total_cache_pending_hits = 105278
	L1D_total_cache_reservation_fails = 1003
	L1D_cache_data_port_util = 0.001
	L1D_cache_fill_port_util = 0.028
L1C_cache:
	L1C_total_cache_accesses = 128
	L1C_total_cache_misses = 64
	L1C_total_cache_miss_rate = 0.5000
	L1C_total_cache_pending_hits = 0
	L1C_total_cache_reservation_fails = 0
L1T_cache:
	L1T_total_cache_accesses = 0
	L1T_total_cache_misses = 0
	L1T_total_cache_pending_hits = 0
	L1T_total_cache_reservation_fails = 0

Total_core_cache_stats:
	Total_core_cache_stats_breakdown[GLOBAL_ACC_R][HIT] = 5810
	Total_core_cache_stats_breakdown[GLOBAL_ACC_R][HIT_RESERVED] = 105278
	Total_core_cache_stats_breakdown[GLOBAL_ACC_R][MISS] = 146960
	Total_core_cache_stats_breakdown[GLOBAL_ACC_R][RESERVATION_FAIL] = 906
	Total_core_cache_stats_breakdown[CONST_ACC_R][HIT] = 64
	Total_core_cache_stats_breakdown[CONST_ACC_R][MISS] = 64
	Total_core_cache_stats_breakdown[GLOBAL_ACC_W][MISS] = 262400
	Total_core_cache_stats_breakdown[GLOBAL_ACC_W][RESERVATION_FAIL] = 97
	Total_core_cache_stats_breakdown[INST_ACC_R][HIT] = 525120
	Total_core_cache_stats_breakdown[INST_ACC_R][MISS] = 128
Shader 0 warp_id issue ditsribution:
warp_id:

distro:

gpgpu_n_tot_thrd_icount = 29411328
gpgpu_n_tot_w_icount = 919104
gpgpu_n_stall_shd_mem = 259179
gpgpu_n_mem_read_local = 0
gpgpu_n_mem_write_local = 0
gpgpu_n_mem_read_global = 146960
gpgpu_n_mem_write_global = 262400
gpgpu_n_mem_texture = 0
gpgpu_n_mem_const = 8
gpgpu_n_load_insn  = 4194304
gpgpu_n_store_insn = 4198400
gpgpu_n_shmem_insn = 0
gpgpu_n_tex_insn = 0
gpgpu_n_const_mem_insn = 0
gpgpu_n_param_mem_insn = 4096
gpgpu_n_shmem_bkconflict = 0
gpgpu_n_cache_bkconflict = 0
gpgpu_n_intrawarp_mshr_merge = 0
gpgpu_n_cmem_portconflict = 0
gpgpu_stall_shd_mem[c_mem][bk_conf] = 0
gpgpu_stall_shd_mem[c_mem][mshr_rc] = 0
gpgpu_stall_shd_mem[c_mem][icnt_rc] = 0
gpgpu_stall_shd_mem[c_mem][data_port_stall] = 0
gpgpu_stall_shd_mem[t_mem][mshr_rc] = 0
gpgpu_stall_shd_mem[t_mem][icnt_rc] = 0
gpgpu_stall_shd_mem[t_mem][data_port_stall] = 0
gpgpu_stall_shd_mem[s_mem][bk_conf] = 0
gpgpu_stall_shd_mem[gl_mem][bk_conf] = 0
gpgpu_stall_shd_mem[gl_mem][coal_stall] = 259179
gpgpu_stall_shd_mem[gl_mem][data_port_stall] = 0
gpgpu_stall_shd_mem[g_mem_ld][mshr_rc] = 0
gpgpu_stall_shd_mem[g_mem_ld][icnt_rc] = 0
gpgpu_stall_shd_mem[g_mem_ld][wb_icnt_rc] = 0
gpgpu_stall_shd_mem[g_mem_ld][wb_rsrv_fail] = 0
gpgpu_stall_shd_mem[g_mem_st][mshr_rc] = 0
gpgpu_stall_shd_mem[g_mem_st][icnt_rc] = 0
gpgpu_stall_shd_mem[g_mem_st][wb_icnt_rc] = 0
gpgpu_stall_shd_mem[g_mem_st][wb_rsrv_fail] = 0
gpgpu_stall_shd_mem[l_mem_ld][mshr_rc] = 0
gpgpu_stall_shd_mem[l_mem_ld][icnt_rc] = 0
gpgpu_stall_shd_mem[l_mem_ld][wb_icnt_rc] = 0
gpgpu_stall_shd_mem[l_mem_ld][wb_rsrv_fail] = 0
gpgpu_stall_shd_mem[l_mem_st][mshr_rc] = 0
gpgpu_stall_shd_mem[l_mem_st][icnt_rc] = 0
gpgpu_stall_shd_mem[l_mem_ld][wb_icnt_rc] = 0
gpgpu_stall_shd_mem[l_mem_ld][wb_rsrv_fail] = 0
gpu_reg_bank_conflict_stalls = 0
Warp Occupancy Distribution:
Stall:2338	W0_Idle:11673	W0_Scoreboard:9435589	W1:0	W2:0	W3:0	W4:0	W5:0	W6:0	W7:0	W8:0	W9:0	W10:0	W11:0	W12:0	W13:0	W14:0	W15:0	W16:0	W17:0	W18:0	W19:0	W20:0	W21:0	W22:0	W23:0	W24:0	W25:0	W26:0	W27:0	W28:0	W29:0	W30:0	W31:0	W32:919104
traffic_breakdown_coretomem[CONST_ACC_R] = 64 {8:8,}
traffic_breakdown_coretomem[GLOBAL_ACC_R] = 1175680 {8:146960,}
traffic_breakdown_coretomem[GLOBAL_ACC_W] = 23091200 {40:131200,136:131200,}
traffic_breakdown_coretomem[INST_ACC_R] = 128 {8:16,}
traffic_breakdown_memtocore[CONST_ACC_R] = 576 {72:8,}
traffic_breakdown_memtocore[GLOBAL_ACC_R] = 19986560 {136:146960,}
traffic_breakdown_memtocore[GLOBAL_ACC_W] = 2099200 {8:262400,}
traffic_breakdown_memtocore[INST_ACC_R] = 2176 {136:16,}
maxmrqlatency = 138 
maxdqlatency = 0 
maxmflatency = 469 
max_icnt2mem_latency = 94 
max_icnt2sh_latency = 648355 
mrq_lat_table:109809 	15408 	2946 	1209 	1815 	56 	88 	2 	0 	0 	0 	0 	0 	0 	0 	0 	0 	0 	0 	0 	0 	0 	0 	0 	0 	0 	0 	0 	0 	0 	0 	0 	
dq_lat_table:0 	0 	0 	0 	0 	0 	0 	0 	0 	0 	0 	0 	0 	0 	0 	0 	0 	0 	0 	0 	0 	0 	0 	0 	0 	0 	0 	0 	0 	0 	0 	0 	
mf_lat_table:0 	0 	0 	0 	0 	0 	0 	274984 	134384 	0 	0 	0 	0 	0 	0 	0 	0 	0 	0 	0 	0 	0 	0 	0 	0 	0 	0 	0 	0 	0 	0 	0 	
icnt2mem_lat_table:0 	0 	0 	189085 	189753 	30403 	143 	0 	0 	0 	0 	0 	0 	0 	0 	0 	0 	0 	0 	0 	0 	0 	0 	0 	
icnt2sh_lat_table:0 	0 	0 	82471 	63221 	1275 	1 	0 	0 	80 	310 	842 	1625 	3288 	6556 	13209 	26640 	53113 	106471 	50266 	0 	0 	0 	0 	
mf_lat_pw_table:0 	0 	0 	0 	0 	0 	0 	0 	0 	0 	0 	0 	0 	0 	0 	0 	0 	0 	0 	0 	0 	0 	0 	0 	0 	0 	0 	0 	0 	0 	0 	0 	
maximum concurrent accesses to same row:
dram[0]:        32        32        32        32        32        32        32        32        32        32        32        32        32        32        32        32 
dram[1]:        32        32        32        32        32        32        32        32        32        32        32        32        32        32        32        32 
dram[2]:        32        32        32        32        32        32        32        32        32        32        32        32        32        32        32        32 
dram[3]:        32        32        32        32        32        32        32        32        32        32        32        32        32        32        32        32 
dram[4]:        32        32        32        32        32        32        32        32        32        32        32        32        32        32        32        32 
dram[5]:        32        32        32        32        32        32        32        32        32        32        32        32        32        32        32        32 
maximum service time to same row:
dram[0]:     15958     15646     15668     15593     15606     15707     15702     15695     15582     15622     15517     15540     15685     15523     15777     15569 
dram[1]:     15808     15684     15808     15609     15676     15695     15659     15664     15632     15598     15578     15520     15555     15442     15655     15519 
dram[2]:     15556     15446     15541     15403     15539     15531     15457     15695     15499     15565     15476     15524     15535     15484     15665     15486 
dram[3]:     15715     15454     15609     15502     15483     15525     15389     15660     15391     15635     15429     15584     15480     15484     15613     15438 
dram[4]:     15429     15562     15386     15531     15423     15573     15367     15597     15349     15574     15435     15601     15456     15461     15536     15476 
dram[5]:     15691     15649     15715     15524     15678     15505     15662     15504     15596     15430     15599     15464     15560     15508     15453     15556 
average row accesses per activate:
dram[0]: 29.543478 31.488373 32.000000 32.000000 31.348837 31.395350 32.000000 32.000000 32.000000 32.000000 32.000000 32.000000 31.545454 31.681818 32.000000 32.000000 
dram[1]: 31.534883 31.488373 32.000000 32.000000 31.348837 31.395350 32.000000 32.000000 32.000000 32.000000 32.000000 32.000000 31.545454 31.681818 32.000000 32.000000 
dram[2]: 31.534883 31.488373 32.000000 32.000000 31.348837 31.395350 32.000000 32.000000 32.000000 32.000000 32.000000 32.000000 31.659090 31.681818 32.000000 32.000000 
dram[3]: 31.534883 31.488373 32.000000 32.000000 31.348837 31.395350 32.000000 32.000000 32.000000 32.000000 32.000000 32.000000 31.681818 31.681818 32.000000 32.000000 
dram[4]: 31.511627 31.488373 32.000000 32.000000 31.395350 31.395350 32.000000 32.000000 32.000000 32.000000 32.000000 32.000000 31.681818 31.590910 32.000000 32.000000 
dram[5]: 31.488373 31.488373 32.000000 32.000000 31.395350 31.395350 32.000000 32.000000 32.000000 32.000000 32.000000 32.000000 31.681818 31.545454 32.000000 32.000000 
average row locality = 131333/4131 = 31.792061
number of total memory accesses made:
dram[0]:         0         0         0         0         0         0         0         0         0         0         0         0         0         0         0         0 
dram[1]:         0         0         0         0         0         0         0         0         0         0         0         0         0         0         0         0 
dram[2]:         0         0         0         0         0         0         0         0         0         0         0         0         0         0         0         0 
dram[3]:         0         0         0         0         0         0         0         0         0         0         0         0         0         0         0         0 
dram[4]:         0         0         0         0         0         0         0         0         0         0         0         0         0         0         0         0 
dram[5]:         0         0         0         0         0         0         0         0         0         0         0         0         0         0         0         0 
total accesses: 0
min_bank_accesses = 0!
min_chip_accesses = 0!
number of total read accesses:
dram[0]:      1359      1354      1344      1344      1348      1350      1376      1376      1376      1376      1376      1376      1380      1382      1376      1376 
dram[1]:      1356      1354      1344      1344      1348      1350      1376      1376      1376      1376      1376      1376      1380      1382      1376      1376 
dram[2]:      1356      1354      1344      1344      1348      1350      1376      1376      1376      1376      1376      1376      1382      1382      1376      1376 
dram[3]:      1356      1354      1344      1344      1348      1350      1376      1376      1376      1376      1376      1376      1382      1382      1376      1376 
dram[4]:      1355      1354      1344      1344      1350      1350      1376      1376      1376      1376      1376      1376      1382      1381      1376      1376 
dram[5]:      1354      1354      1344      1344      1350      1350      1376      1376      1376      1376      1376      1376      1382      1380      1376      1376 
total reads: 131205
bank skew: 1382/1344 = 1.03
chip skew: 21869/21866 = 1.00
number of total write accesses:
dram[0]:         0         0         0         0         0         0         0         0         0         0         0         0         8        12         0         0 
dram[1]:         0         0         0         0         0         0         0         0         0         0         0         0         8        12         0         0 
dram[2]:         0         0         0         0         0         0         0         0         0         0         0         0        11        12         0         0 
dram[3]:         0         0         0         0         0         0         0         0         0         0         0         0        12        12         0         0 
dram[4]:         0         0         0         0         0         0         0         0         0         0         0         0        12         9         0         0 
dram[5]:         0         0         0         0         0         0         0         0         0         0         0         0        12         8         0         0 
total reads: 128
min_bank_accesses = 0!
chip skew: 24/20 = 1.20
average mf latency per bank:
dram[0]:        296       298       296       301       294       298       298       300       298       300       297       294      2065      2948       298       297
dram[1]:        297       295       300       297       296       295       296       300       296       299       295       297      2077      2956       297       298
dram[2]:        297       296       300       297       297       295       299       300       299       299       294       297      2747      2951       296       298
dram[3]:        294       299       297       301       295       297       299       297       299       297       296       296      2967      2958       297       298
dram[4]:        296       298       296       299       295       298       300       300       298       299       297       295      2958      2287       298       295
dram[5]:        299       295       300       297       296       295       297       298       296       299       295       296      2938      2070       298       297
maximum mf latency per bank:
dram[0]:        325       328       321       325       327       327       325       339       339       330       325       322       469       401       334       330
dram[1]:        311       325       327       330       325       322       339       342       322       332       326       319       396       420       330       350
dram[2]:        325       323       329       324       321       333       331       335       321       331       323       341       428       430       332       321
dram[3]:        330       330       333       322       318       324       342       334       325       314       319       330       399       452       324       317
dram[4]:        340       319       326       321       339       322       357       332       325       331       317       321       432       399       322       320
dram[5]:        339       330       320       314       321       323       325       332       339       320       323       325       435       364       331       334
Memory Partition 0: 
Cache L2_bank_000:
MSHR contents

Cache L2_bank_001:
MSHR contents

In Dram Latency Queue (total = 0): 
DRAM[0]: 16 bks, busW=4 BL=8 CL=12, tRRD=2 tCCD=6, tRCD=12 tRAS=28 tRP=12 tRC=40
n_cmd=843750 n_nop=798616 n_act=691 n_pre=675 n_req=21889 n_rd=43738 n_write=30 bw_util=0.1037
n_activity=269335 dram_eff=0.325
bk0: 2718a 836350i bk1: 2708a 835759i bk2: 2688a 836452i bk3: 2688a 836014i bk4: 2696a 836512i bk5: 2700a 835884i bk6: 2752a 836303i bk7: 2752a 835830i bk8: 2752a 836418i bk9: 2752a 835936i bk10: 2752a 836311i bk11: 2752a 835872i bk12: 2760a 836220i bk13: 2764a 835619i bk14: 2752a 836353i bk15: 2752a 835742i 
dram_util_bins: 0 0 0 0 0 0 0 0 0 0
dram_eff_bins: 0 0 0 0 0 0 0 0 0 0
mrqq: max=12 avg=0.023629
Memory Partition 1: 
Cache L2_bank_002:
MSHR contents

Cache L2_bank_003:
MSHR contents

In Dram Latency Queue (total = 0): 
DRAM[1]: 16 bks, busW=4 BL=8 CL=12, tRRD=2 tCCD=6, tRCD=12 tRAS=28 tRP=12 tRC=40
n_cmd=843750 n_nop=798628 n_act=688 n_pre=672 n_req=21886 n_rd=43732 n_write=30 bw_util=0.1037
n_activity=269439 dram_eff=0.3248
bk0: 2712a 836548i bk1: 2708a 835975i bk2: 2688a 836455i bk3: 2688a 836019i bk4: 2696a 836436i bk5: 2700a 835738i bk6: 2752a 836377i bk7: 2752a 835772i bk8: 2752a 836431i bk9: 2752a 835957i bk10: 2752a 836244i bk11: 2752a 835766i bk12: 2760a 836153i bk13: 2764a 835506i bk14: 2752a 836257i bk15: 2752a 835681i 
dram_util_bins: 0 0 0 0 0 0 0 0 0 0
dram_eff_bins: 0 0 0 0 0 0 0 0 0 0
mrqq: max=16 avg=0.0237985
Memory Partition 2: 
Cache L2_bank_004:
MSHR contents

Cache L2_bank_005:
MSHR contents

In Dram Latency Queue (total = 0): 
DRAM[2]: 16 bks, busW=4 BL=8 CL=12, tRRD=2 tCCD=6, tRCD=12 tRAS=28 tRP=12 tRC=40
n_cmd=843750 n_nop=798619 n_act=688 n_pre=672 n_req=21891 n_rd=43736 n_write=35 bw_util=0.1038
n_activity=269493 dram_eff=0.3248
bk0: 2712a 836477i bk1: 2708a 835880i bk2: 2688a 836460i bk3: 2688a 835919i bk4: 2696a 836410i bk5: 2700a 835872i bk6: 2752a 836418i bk7: 2752a 835626i bk8: 2752a 836456i bk9: 2752a 835911i bk10: 2752a 836286i bk11: 2752a 835718i bk12: 2764a 836051i bk13: 2764a 835725i bk14: 2752a 836236i bk15: 2752a 835975i 
dram_util_bins: 0 0 0 0 0 0 0 0 0 0
dram_eff_bins: 0 0 0 0 0 0 0 0 0 0
mrqq: max=16 avg=0.0251899
Memory Partition 3: 
Cache L2_bank_006:
MSHR contents

Cache L2_bank_007:
MSHR contents

In Dram Latency Queue (total = 0): 
DRAM[3]: 16 bks, busW=4 BL=8 CL=12, tRRD=2 tCCD=6, tRCD=12 tRAS=28 tRP=12 tRC=40
n_cmd=843750 n_nop=798618 n_act=688 n_pre=672 n_req=21892 n_rd=43736 n_write=36 bw_util=0.1038
n_activity=269590 dram_eff=0.3247
bk0: 2712a 836430i bk1: 2708a 835951i bk2: 2688a 836420i bk3: 2688a 836028i bk4: 2696a 836426i bk5: 2700a 835858i bk6: 2752a 836401i bk7: 2752a 835800i bk8: 2752a 836486i bk9: 2752a 835873i bk10: 2752a 836328i bk11: 2752a 835871i bk12: 2764a 836130i bk13: 2764a 835619i bk14: 2752a 836383i bk15: 2752a 835619i 
dram_util_bins: 0 0 0 0 0 0 0 0 0 0
dram_eff_bins: 0 0 0 0 0 0 0 0 0 0
mrqq: max=16 avg=0.025267
Memory Partition 4: 
Cache L2_bank_008:
MSHR contents

Cache L2_bank_009:
MSHR contents

In Dram Latency Queue (total = 0): 
DRAM[4]: 16 bks, busW=4 BL=8 CL=12, tRRD=2 tCCD=6, tRCD=12 tRAS=28 tRP=12 tRC=40
n_cmd=843750 n_nop=798623 n_act=688 n_pre=672 n_req=21889 n_rd=43736 n_write=31 bw_util=0.1037
n_activity=268391 dram_eff=0.3261
bk0: 2710a 836464i bk1: 2708a 835934i bk2: 2688a 836417i bk3: 2688a 836044i bk4: 2700a 836410i bk5: 2700a 835827i bk6: 2752a 836322i bk7: 2752a 835767i bk8: 2752a 836468i bk9: 2752a 835838i bk10: 2752a 836314i bk11: 2752a 835716i bk12: 2764a 836131i bk13: 2762a 835543i bk14: 2752a 836359i bk15: 2752a 835797i 
dram_util_bins: 0 0 0 0 0 0 0 0 0 0
dram_eff_bins: 0 0 0 0 0 0 0 0 0 0
mrqq: max=16 avg=0.0243935
Memory Partition 5: 
Cache L2_bank_010:
MSHR contents

Cache L2_bank_011:
MSHR contents

In Dram Latency Queue (total = 0): 
DRAM[5]: 16 bks, busW=4 BL=8 CL=12, tRRD=2 tCCD=6, tRCD=12 tRAS=28 tRP=12 tRC=40
n_cmd=843750 n_nop=798628 n_act=688 n_pre=672 n_req=21886 n_rd=43732 n_write=30 bw_util=0.1037
n_activity=268866 dram_eff=0.3255
bk0: 2708a 836486i bk1: 2708a 836022i bk2: 2688a 836557i bk3: 2688a 836093i bk4: 2700a 836378i bk5: 2700a 835892i bk6: 2752a 836259i bk7: 2752a 835767i bk8: 2752a 836466i bk9: 2752a 835931i bk10: 2752a 836348i bk11: 2752a 835644i bk12: 2764a 836049i bk13: 2760a 835623i bk14: 2752a 836293i bk15: 2752a 835712i 
dram_util_bins: 0 0 0 0 0 0 0 0 0 0
dram_eff_bins: 0 0 0 0 0 0 0 0 0 0
mrqq: max=16 avg=0.0245428

========= L2 cache stats =========
L2_cache_bank[0]: Access = 28673, Miss = 10935, Miss_rate = 0.381, Pending_hits = 629, Reservation_fails = 344
L2_cache_bank[1]: Access = 36850, Miss = 10934, Miss_rate = 0.297, Pending_hits = 686, Reservation_fails = 0
L2_cache_bank[2]: Access = 28651, Miss = 10932, Miss_rate = 0.382, Pending_hits = 662, Reservation_fails = 0
L2_cache_bank[3]: Access = 36848, Miss = 10934, Miss_rate = 0.297, Pending_hits = 640, Reservation_fails = 0
L2_cache_bank[4]: Access = 34792, Miss = 10934, Miss_rate = 0.314, Pending_hits = 688, Reservation_fails = 0
L2_cache_bank[5]: Access = 36841, Miss = 10934, Miss_rate = 0.297, Pending_hits = 623, Reservation_fails = 0
L2_cache_bank[6]: Access = 36848, Miss = 10934, Miss_rate = 0.297, Pending_hits = 642, Reservation_fails = 0
L2_cache_bank[7]: Access = 36850, Miss = 10934, Miss_rate = 0.297, Pending_hits = 658, Reservation_fails = 0
L2_cache_bank[8]: Access = 36849, Miss = 10935, Miss_rate = 0.297, Pending_hits = 622, Reservation_fails = 0
L2_cache_bank[9]: Access = 30700, Miss = 10933, Miss_rate = 0.356, Pending_hits = 692, Reservation_fails = 0
L2_cache_bank[10]: Access = 36842, Miss = 10934, Miss_rate = 0.297, Pending_hits = 652, Reservation_fails = 0
L2_cache_bank[11]: Access = 28640, Miss = 10932, Miss_rate = 0.382, Pending_hits = 634, Reservation_fails = 0
L2_total_cache_accesses = 409384
L2_total_cache_misses = 131205
L2_total_cache_miss_rate = 0.3205
L2_total_cache_pending_hits = 7828
L2_total_cache_reservation_fails = 344
L2_total_cache_breakdown:
	L2_cache_stats_breakdown[GLOBAL_ACC_R][HIT] = 8067
	L2_cache_stats_breakdown[GLOBAL_ACC_R][HIT_RESERVED] = 7756
	L2_cache_stats_breakdown[GLOBAL_ACC_R][MISS] = 131137
	L2_cache_stats_breakdown[CONST_ACC_R][HIT] = 4
	L2_cache_stats_breakdown[CONST_ACC_R][HIT_RESERVED] = 3
	L2_cache_stats_breakdown[CONST_ACC_R][MISS] = 1
	L2_cache_stats_breakdown[CONST_ACC_R][RESERVATION_FAIL] = 109
	L2_cache_stats_breakdown[GLOBAL_ACC_W][HIT] = 262272
	L2_cache_stats_breakdown[GLOBAL_ACC_W][HIT_RESERVED] = 63
	L2_cache_stats_breakdown[GLOBAL_ACC_W][MISS] = 65
	L2_cache_stats_breakdown[GLOBAL_ACC_W][RESERVATION_FAIL] = 2
	L2_cache_stats_breakdown[INST_ACC_R][HIT] = 8
	L2_cache_stats_breakdown[INST_ACC_R][HIT_RESERVED] = 6
	L2_cache_stats_breakdown[INST_ACC_R][MISS] = 2
	L2_cache_stats_breakdown[INST_ACC_R][RESERVATION_FAIL] = 233
L2_cache_data_port_util = 0.088
L2_cache_fill_port_util = 0.067

icnt_total_pkts_mem_to_simt=997304
icnt_total_pkts_simt_to_mem=1065384
LD_mem_lat_dist  0 0 0 0 0 0 0 0 0 0 0 0 0 0 0 0 0 0 0 0 0 0 0 0 0 0 0
ST_mem_lat_dist  0 0 0 0 0 0 0 0 0 0 0 0 0 0 0 0 0 0 0 0 0 0 0 0 0 0 0
----------------------------Interconnect-DETAILS--------------------------------
Class 0:
Packet latency average = 12.3476
	minimum = 6
	maximum = 62
Network latency average = 10.6693
	minimum = 6
	maximum = 47
Slowest packet = 382
Flit latency average = 9.29889
	minimum = 6
	maximum = 46
Slowest flit = 203748
Fragmentation average = 0
	minimum = 0
	maximum = 0
Injected packet rate average = 0.0467717
	minimum = 0 (at node 0)
	maximum = 0.0789443 (at node 1)
Accepted packet rate average = 0.0467717
	minimum = 0 (at node 0)
	maximum = 0.0789443 (at node 1)
Injected flit rate average = 0.11783
	minimum = 0 (at node 0)
	maximum = 0.205418 (at node 1)
Accepted flit rate average= 0.11783
	minimum = 0 (at node 0)
	maximum = 0.19236 (at node 1)
Injected packet length average = 2.51926
Accepted packet length average = 2.51926
Total in-flight flits = 0 (0 measured)
====== Overall Traffic Statistics ======
====== Traffic class 0 ======
Packet latency average = 12.3476 (1 samples)
	minimum = 6 (1 samples)
	maximum = 62 (1 samples)
Network latency average = 10.6693 (1 samples)
	minimum = 6 (1 samples)
	maximum = 47 (1 samples)
Flit latency average = 9.29889 (1 samples)
	minimum = 6 (1 samples)
	maximum = 46 (1 samples)
Fragmentation average = 0 (1 samples)
	minimum = 0 (1 samples)
	maximum = 0 (1 samples)
Injected packet rate average = 0.0467717 (1 samples)
	minimum = 0 (1 samples)
	maximum = 0.0789443 (1 samples)
Accepted packet rate average = 0.0467717 (1 samples)
	minimum = 0 (1 samples)
	maximum = 0.0789443 (1 samples)
Injected flit rate average = 0.11783 (1 samples)
	minimum = 0 (1 samples)
	maximum = 0.205418 (1 samples)
Accepted flit rate average = 0.11783 (1 samples)
	minimum = 0 (1 samples)
	maximum = 0.19236 (1 samples)
Injected packet size average = 2.51926 (1 samples)
Accepted packet size average = 2.51926 (1 samples)
Hops average = 1 (1 samples)
----------------------------END-of-Interconnect-DETAILS-------------------------


gpgpu_simulation_time = 0 days, 0 hrs, 2 min, 14 sec (134 sec)
gpgpu_simulation_rate = 219456 (inst/sec)
gpgpu_simulation_rate = 4838 (cycle/sec)
GPGPU-Sim: synchronize waiting for inactive GPU simulation
GPGPU-Sim API: Stream Manager State
GPGPU-Sim: detected inactive GPU simulation thread

GPGPU-Sim PTX: cudaLaunch for 0x0x401440 (mode=performance simulation) on stream 0
GPGPU-Sim PTX: pushing kernel '_Z13reduce_kernelPfS_' to stream 0, gridDim= (64,64,1) blockDim = (32,8,1) 
####  CUstream_st::push: Start pushing kernel: reduce_kernel  ####
kernel '_Z13reduce_kernelPfS_' transfer to GPU hardware scheduler
GPGPU-Sim uArch: Shader 9 bind to kernel 2 '_Z13reduce_kernelPfS_'
GPGPU-Sim uArch: CTA/core = 6, limited by: threads
GPGPU-Sim uArch: core:  9, cta: 0 initialized @(1,648356)
GPGPU-Sim uArch: Shader 10 bind to kernel 2 '_Z13reduce_kernelPfS_'
GPGPU-Sim uArch: core: 10, cta: 0 initialized @(1,648356)
GPGPU-Sim uArch: Shader 11 bind to kernel 2 '_Z13reduce_kernelPfS_'
GPGPU-Sim uArch: core: 11, cta: 0 initialized @(1,648356)
GPGPU-Sim uArch: Shader 12 bind to kernel 2 '_Z13reduce_kernelPfS_'
GPGPU-Sim uArch: core: 12, cta: 0 initialized @(1,648356)
GPGPU-Sim uArch: Shader 13 bind to kernel 2 '_Z13reduce_kernelPfS_'
GPGPU-Sim uArch: core: 13, cta: 0 initialized @(1,648356)
GPGPU-Sim uArch: Shader 14 bind to kernel 2 '_Z13reduce_kernelPfS_'
GPGPU-Sim uArch: core: 14, cta: 0 initialized @(1,648356)
GPGPU-Sim uArch: Shader 0 bind to kernel 2 '_Z13reduce_kernelPfS_'
GPGPU-Sim uArch: core:  0, cta: 0 initialized @(1,648356)
GPGPU-Sim uArch: Shader 1 bind to kernel 2 '_Z13reduce_kernelPfS_'
GPGPU-Sim uArch: core:  1, cta: 0 initialized @(1,648356)
GPGPU-Sim uArch: Shader 2 bind to kernel 2 '_Z13reduce_kernelPfS_'
GPGPU-Sim uArch: core:  2, cta: 0 initialized @(1,648356)
GPGPU-Sim uArch: Shader 3 bind to kernel 2 '_Z13reduce_kernelPfS_'
GPGPU-Sim uArch: core:  3, cta: 0 initialized @(1,648356)
GPGPU-Sim uArch: Shader 4 bind to kernel 2 '_Z13reduce_kernelPfS_'
GPGPU-Sim uArch: core:  4, cta: 0 initialized @(1,648356)
GPGPU-Sim uArch: Shader 5 bind to kernel 2 '_Z13reduce_kernelPfS_'
GPGPU-Sim uArch: core:  5, cta: 0 initialized @(1,648356)
GPGPU-Sim uArch: Shader 6 bind to kernel 2 '_Z13reduce_kernelPfS_'
GPGPU-Sim uArch: core:  6, cta: 0 initialized @(1,648356)
GPGPU-Sim uArch: Shader 7 bind to kernel 2 '_Z13reduce_kernelPfS_'
GPGPU-Sim uArch: core:  7, cta: 0 initialized @(1,648356)
GPGPU-Sim uArch: Shader 8 bind to kernel 2 '_Z13reduce_kernelPfS_'
GPGPU-Sim uArch: core:  8, cta: 0 initialized @(1,648356)
GPGPU-Sim uArch: core:  9, cta: 1 initialized @(2,648356)
GPGPU-Sim uArch: core: 10, cta: 1 initialized @(2,648356)
GPGPU-Sim uArch: core: 11, cta: 1 initialized @(2,648356)
GPGPU-Sim uArch: core: 12, cta: 1 initialized @(2,648356)
GPGPU-Sim uArch: core: 13, cta: 1 initialized @(2,648356)
GPGPU-Sim uArch: core: 14, cta: 1 initialized @(2,648356)
GPGPU-Sim uArch: core:  0, cta: 1 initialized @(2,648356)
GPGPU-Sim uArch: core:  1, cta: 1 initialized @(2,648356)
GPGPU-Sim uArch: core:  2, cta: 1 initialized @(2,648356)
GPGPU-Sim uArch: core:  3, cta: 1 initialized @(2,648356)
GPGPU-Sim uArch: core:  4, cta: 1 initialized @(2,648356)
GPGPU-Sim uArch: core:  5, cta: 1 initialized @(2,648356)
GPGPU-Sim uArch: core:  6, cta: 1 initialized @(2,648356)
GPGPU-Sim uArch: core:  7, cta: 1 initialized @(2,648356)
GPGPU-Sim uArch: core:  8, cta: 1 initialized @(2,648356)
GPGPU-Sim uArch: core:  9, cta: 2 initialized @(3,648356)
GPGPU-Sim uArch: core: 10, cta: 2 initialized @(3,648356)
GPGPU-Sim uArch: core: 11, cta: 2 initialized @(3,648356)
GPGPU-Sim uArch: core: 12, cta: 2 initialized @(3,648356)
GPGPU-Sim uArch: core: 13, cta: 2 initialized @(3,648356)
GPGPU-Sim uArch: core: 14, cta: 2 initialized @(3,648356)
GPGPU-Sim uArch: core:  0, cta: 2 initialized @(3,648356)
GPGPU-Sim uArch: core:  1, cta: 2 initialized @(3,648356)
GPGPU-Sim uArch: core:  2, cta: 2 initialized @(3,648356)
GPGPU-Sim uArch: core:  3, cta: 2 initialized @(3,648356)
GPGPU-Sim uArch: core:  4, cta: 2 initialized @(3,648356)
GPGPU-Sim uArch: core:  5, cta: 2 initialized @(3,648356)
GPGPU-Sim uArch: core:  6, cta: 2 initialized @(3,648356)
GPGPU-Sim uArch: core:  7, cta: 2 initialized @(3,648356)
GPGPU-Sim uArch: core:  8, cta: 2 initialized @(3,648356)
GPGPU-Sim uArch: core:  9, cta: 3 initialized @(4,648356)
GPGPU-Sim uArch: core: 10, cta: 3 initialized @(4,648356)
GPGPU-Sim uArch: core: 11, cta: 3 initialized @(4,648356)
GPGPU-Sim uArch: core: 12, cta: 3 initialized @(4,648356)
GPGPU-Sim uArch: core: 13, cta: 3 initialized @(4,648356)
GPGPU-Sim uArch: core: 14, cta: 3 initialized @(4,648356)
GPGPU-Sim uArch: core:  0, cta: 3 initialized @(4,648356)
GPGPU-Sim uArch: core:  1, cta: 3 initialized @(4,648356)
GPGPU-Sim uArch: core:  2, cta: 3 initialized @(4,648356)
GPGPU-Sim uArch: core:  3, cta: 3 initialized @(4,648356)
GPGPU-Sim uArch: core:  4, cta: 3 initialized @(4,648356)
GPGPU-Sim uArch: core:  5, cta: 3 initialized @(4,648356)
GPGPU-Sim uArch: core:  6, cta: 3 initialized @(4,648356)
GPGPU-Sim uArch: core:  7, cta: 3 initialized @(4,648356)
GPGPU-Sim uArch: core:  8, cta: 3 initialized @(4,648356)
GPGPU-Sim uArch: core:  9, cta: 4 initialized @(5,648356)
GPGPU-Sim uArch: core: 10, cta: 4 initialized @(5,648356)
GPGPU-Sim uArch: core: 11, cta: 4 initialized @(5,648356)
GPGPU-Sim uArch: core: 12, cta: 4 initialized @(5,648356)
GPGPU-Sim uArch: core: 13, cta: 4 initialized @(5,648356)
GPGPU-Sim uArch: core: 14, cta: 4 initialized @(5,648356)
GPGPU-Sim uArch: core:  0, cta: 4 initialized @(5,648356)
GPGPU-Sim uArch: core:  1, cta: 4 initialized @(5,648356)
GPGPU-Sim uArch: core:  2, cta: 4 initialized @(5,648356)
GPGPU-Sim uArch: core:  3, cta: 4 initialized @(5,648356)
GPGPU-Sim uArch: core:  4, cta: 4 initialized @(5,648356)
GPGPU-Sim uArch: core:  5, cta: 4 initialized @(5,648356)
GPGPU-Sim uArch: core:  6, cta: 4 initialized @(5,648356)
GPGPU-Sim uArch: core:  7, cta: 4 initialized @(5,648356)
GPGPU-Sim uArch: core:  8, cta: 4 initialized @(5,648356)
GPGPU-Sim uArch: core:  9, cta: 5 initialized @(6,648356)
GPGPU-Sim uArch: core: 10, cta: 5 initialized @(6,648356)
GPGPU-Sim uArch: core: 11, cta: 5 initialized @(6,648356)
GPGPU-Sim uArch: core: 12, cta: 5 initialized @(6,648356)
GPGPU-Sim uArch: core: 13, cta: 5 initialized @(6,648356)
GPGPU-Sim uArch: core: 14, cta: 5 initialized @(6,648356)
GPGPU-Sim uArch: core:  0, cta: 5 initialized @(6,648356)
GPGPU-Sim uArch: core:  1, cta: 5 initialized @(6,648356)
GPGPU-Sim uArch: core:  2, cta: 5 initialized @(6,648356)
GPGPU-Sim uArch: core:  3, cta: 5 initialized @(6,648356)
GPGPU-Sim uArch: core:  4, cta: 5 initialized @(6,648356)
GPGPU-Sim uArch: core:  5, cta: 5 initialized @(6,648356)
GPGPU-Sim uArch: core:  6, cta: 5 initialized @(6,648356)
GPGPU-Sim uArch: core:  7, cta: 5 initialized @(6,648356)
GPGPU-Sim uArch: core:  8, cta: 5 initialized @(6,648356)
GPGPU-Sim uArch: Shader 4 finished CTA #5 (2900,648356), 5 CTAs running
GPGPU-Sim uArch: core:  4, cta: 5 initialized @(2901,648356)
GPGPU-Sim uArch: Shader 12 finished CTA #1 (2971,648356), 5 CTAs running
GPGPU-Sim uArch: core: 12, cta: 1 initialized @(2972,648356)
GPGPU-Sim uArch: Shader 4 finished CTA #0 (2976,648356), 5 CTAs running
GPGPU-Sim uArch: core:  4, cta: 0 initialized @(2977,648356)
GPGPU-Sim uArch: Shader 8 finished CTA #2 (3072,648356), 5 CTAs running
GPGPU-Sim uArch: core:  8, cta: 2 initialized @(3073,648356)
GPGPU-Sim uArch: Shader 4 finished CTA #2 (3092,648356), 5 CTAs running
GPGPU-Sim uArch: core:  4, cta: 2 initialized @(3093,648356)
GPGPU-Sim uArch: Shader 8 finished CTA #3 (3118,648356), 5 CTAs running
GPGPU-Sim uArch: core:  8, cta: 3 initialized @(3119,648356)
GPGPU-Sim uArch: Shader 7 finished CTA #2 (3128,648356), 5 CTAs running
GPGPU-Sim uArch: core:  7, cta: 2 initialized @(3129,648356)
GPGPU-Sim uArch: Shader 4 finished CTA #3 (3150,648356), 5 CTAs running
GPGPU-Sim uArch: core:  4, cta: 3 initialized @(3151,648356)
GPGPU-Sim uArch: Shader 8 finished CTA #4 (3171,648356), 5 CTAs running
GPGPU-Sim uArch: core:  8, cta: 4 initialized @(3172,648356)
GPGPU-Sim uArch: Shader 7 finished CTA #3 (3174,648356), 5 CTAs running
GPGPU-Sim uArch: core:  7, cta: 3 initialized @(3175,648356)
GPGPU-Sim uArch: Shader 11 finished CTA #3 (3176,648356), 5 CTAs running
GPGPU-Sim uArch: core: 11, cta: 3 initialized @(3177,648356)
GPGPU-Sim uArch: Shader 1 finished CTA #1 (3182,648356), 5 CTAs running
GPGPU-Sim uArch: core:  1, cta: 1 initialized @(3183,648356)
GPGPU-Sim uArch: Shader 8 finished CTA #5 (3215,648356), 5 CTAs running
GPGPU-Sim uArch: core:  8, cta: 5 initialized @(3216,648356)
GPGPU-Sim uArch: Shader 7 finished CTA #4 (3220,648356), 5 CTAs running
GPGPU-Sim uArch: core:  7, cta: 4 initialized @(3221,648356)
GPGPU-Sim uArch: Shader 14 finished CTA #2 (3239,648356), 5 CTAs running
GPGPU-Sim uArch: core: 14, cta: 2 initialized @(3240,648356)
GPGPU-Sim uArch: Shader 1 finished CTA #2 (3241,648356), 5 CTAs running
GPGPU-Sim uArch: core:  1, cta: 2 initialized @(3242,648356)
GPGPU-Sim uArch: Shader 4 finished CTA #4 (3255,648356), 5 CTAs running
GPGPU-Sim uArch: core:  4, cta: 4 initialized @(3256,648356)
GPGPU-Sim uArch: Shader 4 finished CTA #1 (3264,648356), 5 CTAs running
GPGPU-Sim uArch: core:  4, cta: 1 initialized @(3265,648356)
GPGPU-Sim uArch: Shader 7 finished CTA #5 (3270,648356), 5 CTAs running
GPGPU-Sim uArch: core:  7, cta: 5 initialized @(3271,648356)
GPGPU-Sim uArch: Shader 10 finished CTA #2 (3273,648356), 5 CTAs running
GPGPU-Sim uArch: core: 10, cta: 2 initialized @(3274,648356)
GPGPU-Sim uArch: Shader 11 finished CTA #4 (3275,648356), 5 CTAs running
GPGPU-Sim uArch: core: 11, cta: 4 initialized @(3276,648356)
GPGPU-Sim uArch: Shader 14 finished CTA #3 (3283,648356), 5 CTAs running
GPGPU-Sim uArch: core: 14, cta: 3 initialized @(3284,648356)
GPGPU-Sim uArch: Shader 6 finished CTA #3 (3285,648356), 5 CTAs running
GPGPU-Sim uArch: core:  6, cta: 3 initialized @(3286,648356)
GPGPU-Sim uArch: Shader 2 finished CTA #4 (3296,648356), 5 CTAs running
GPGPU-Sim uArch: core:  2, cta: 4 initialized @(3297,648356)
GPGPU-Sim uArch: Shader 1 finished CTA #5 (3306,648356), 5 CTAs running
GPGPU-Sim uArch: Shader 8 finished CTA #0 (3306,648356), 5 CTAs running
GPGPU-Sim uArch: core:  8, cta: 0 initialized @(3307,648356)
GPGPU-Sim uArch: core:  1, cta: 5 initialized @(3307,648356)
GPGPU-Sim uArch: Shader 10 finished CTA #3 (3318,648356), 5 CTAs running
GPGPU-Sim uArch: core: 10, cta: 3 initialized @(3319,648356)
GPGPU-Sim uArch: Shader 6 finished CTA #4 (3330,648356), 5 CTAs running
GPGPU-Sim uArch: core:  6, cta: 4 initialized @(3331,648356)
GPGPU-Sim uArch: Shader 7 finished CTA #0 (3333,648356), 5 CTAs running
GPGPU-Sim uArch: core:  7, cta: 0 initialized @(3334,648356)
GPGPU-Sim uArch: Shader 11 finished CTA #5 (3336,648356), 5 CTAs running
GPGPU-Sim uArch: core: 11, cta: 5 initialized @(3337,648356)
GPGPU-Sim uArch: Shader 5 finished CTA #1 (3338,648356), 5 CTAs running
GPGPU-Sim uArch: core:  5, cta: 1 initialized @(3339,648356)
GPGPU-Sim uArch: Shader 1 finished CTA #3 (3340,648356), 5 CTAs running
GPGPU-Sim uArch: core:  1, cta: 3 initialized @(3341,648356)
GPGPU-Sim uArch: Shader 14 finished CTA #4 (3346,648356), 5 CTAs running
GPGPU-Sim uArch: core: 14, cta: 4 initialized @(3347,648356)
GPGPU-Sim uArch: Shader 3 finished CTA #1 (3349,648356), 5 CTAs running
GPGPU-Sim uArch: core:  3, cta: 1 initialized @(3350,648356)
GPGPU-Sim uArch: Shader 9 finished CTA #1 (3362,648356), 5 CTAs running
GPGPU-Sim uArch: core:  9, cta: 1 initialized @(3363,648356)
GPGPU-Sim uArch: Shader 5 finished CTA #2 (3363,648356), 5 CTAs running
GPGPU-Sim uArch: core:  5, cta: 2 initialized @(3364,648356)
GPGPU-Sim uArch: Shader 2 finished CTA #5 (3371,648356), 5 CTAs running
GPGPU-Sim uArch: core:  2, cta: 5 initialized @(3372,648356)
GPGPU-Sim uArch: Shader 7 finished CTA #1 (3373,648356), 5 CTAs running
GPGPU-Sim uArch: core:  7, cta: 1 initialized @(3374,648356)
GPGPU-Sim uArch: Shader 10 finished CTA #4 (3378,648356), 5 CTAs running
GPGPU-Sim uArch: core: 10, cta: 4 initialized @(3379,648356)
GPGPU-Sim uArch: Shader 8 finished CTA #1 (3380,648356), 5 CTAs running
GPGPU-Sim uArch: core:  8, cta: 1 initialized @(3381,648356)
GPGPU-Sim uArch: Shader 1 finished CTA #4 (3390,648356), 5 CTAs running
GPGPU-Sim uArch: core:  1, cta: 4 initialized @(3391,648356)
GPGPU-Sim uArch: Shader 6 finished CTA #5 (3400,648356), 5 CTAs running
GPGPU-Sim uArch: Shader 14 finished CTA #5 (3400,648356), 5 CTAs running
GPGPU-Sim uArch: core:  6, cta: 5 initialized @(3401,648356)
GPGPU-Sim uArch: core: 14, cta: 5 initialized @(3401,648356)
GPGPU-Sim uArch: Shader 12 finished CTA #2 (3402,648356), 5 CTAs running
GPGPU-Sim uArch: core: 12, cta: 2 initialized @(3403,648356)
GPGPU-Sim uArch: Shader 11 finished CTA #0 (3412,648356), 5 CTAs running
GPGPU-Sim uArch: core: 11, cta: 0 initialized @(3413,648356)
GPGPU-Sim uArch: Shader 5 finished CTA #3 (3417,648356), 5 CTAs running
GPGPU-Sim uArch: core:  5, cta: 3 initialized @(3418,648356)
GPGPU-Sim uArch: Shader 3 finished CTA #5 (3422,648356), 5 CTAs running
GPGPU-Sim uArch: Shader 9 finished CTA #2 (3422,648356), 5 CTAs running
GPGPU-Sim uArch: core:  9, cta: 2 initialized @(3423,648356)
GPGPU-Sim uArch: core:  3, cta: 5 initialized @(3423,648356)
GPGPU-Sim uArch: Shader 1 finished CTA #0 (3432,648356), 5 CTAs running
GPGPU-Sim uArch: core:  1, cta: 0 initialized @(3433,648356)
GPGPU-Sim uArch: Shader 0 finished CTA #2 (3438,648356), 5 CTAs running
GPGPU-Sim uArch: core:  0, cta: 2 initialized @(3439,648356)
GPGPU-Sim uArch: Shader 10 finished CTA #5 (3440,648356), 5 CTAs running
GPGPU-Sim uArch: core: 10, cta: 5 initialized @(3441,648356)
GPGPU-Sim uArch: Shader 13 finished CTA #3 (3445,648356), 5 CTAs running
GPGPU-Sim uArch: core: 13, cta: 3 initialized @(3446,648356)
GPGPU-Sim uArch: Shader 2 finished CTA #3 (3453,648356), 5 CTAs running
GPGPU-Sim uArch: core:  2, cta: 3 initialized @(3454,648356)
GPGPU-Sim uArch: Shader 3 finished CTA #2 (3454,648356), 5 CTAs running
GPGPU-Sim uArch: Shader 6 finished CTA #0 (3454,648356), 5 CTAs running
GPGPU-Sim uArch: core:  3, cta: 2 initialized @(3455,648356)
GPGPU-Sim uArch: core:  6, cta: 0 initialized @(3455,648356)
GPGPU-Sim uArch: Shader 11 finished CTA #1 (3459,648356), 5 CTAs running
GPGPU-Sim uArch: core: 11, cta: 1 initialized @(3460,648356)
GPGPU-Sim uArch: Shader 12 finished CTA #3 (3469,648356), 5 CTAs running
GPGPU-Sim uArch: core: 12, cta: 3 initialized @(3470,648356)
GPGPU-Sim uArch: Shader 14 finished CTA #0 (3471,648356), 5 CTAs running
GPGPU-Sim uArch: core: 14, cta: 0 initialized @(3472,648356)
GPGPU-Sim uArch: Shader 9 finished CTA #3 (3477,648356), 5 CTAs running
GPGPU-Sim uArch: core:  9, cta: 3 initialized @(3478,648356)
GPGPU-Sim uArch: Shader 5 finished CTA #4 (3480,648356), 5 CTAs running
GPGPU-Sim uArch: core:  5, cta: 4 initialized @(3481,648356)
GPGPU-Sim uArch: Shader 10 finished CTA #0 (3486,648356), 5 CTAs running
GPGPU-Sim uArch: core: 10, cta: 0 initialized @(3487,648356)
GPGPU-Sim uArch: Shader 6 finished CTA #1 (3489,648356), 5 CTAs running
GPGPU-Sim uArch: Shader 6 finished CTA #2 (3489,648356), 4 CTAs running
GPGPU-Sim uArch: core:  6, cta: 1 initialized @(3490,648356)
GPGPU-Sim uArch: Shader 2 finished CTA #0 (3490,648356), 5 CTAs running
GPGPU-Sim uArch: Shader 14 finished CTA #1 (3490,648356), 5 CTAs running
GPGPU-Sim uArch: core: 14, cta: 1 initialized @(3491,648356)
GPGPU-Sim uArch: core:  2, cta: 0 initialized @(3491,648356)
GPGPU-Sim uArch: core:  6, cta: 2 initialized @(3491,648356)
GPGPU-Sim uArch: Shader 9 finished CTA #4 (3514,648356), 5 CTAs running
GPGPU-Sim uArch: core:  9, cta: 4 initialized @(3515,648356)
GPGPU-Sim uArch: Shader 3 finished CTA #3 (3518,648356), 5 CTAs running
GPGPU-Sim uArch: core:  3, cta: 3 initialized @(3519,648356)
GPGPU-Sim uArch: Shader 0 finished CTA #1 (3522,648356), 5 CTAs running
GPGPU-Sim uArch: Shader 10 finished CTA #1 (3522,648356), 5 CTAs running
GPGPU-Sim uArch: core: 10, cta: 1 initialized @(3523,648356)
GPGPU-Sim uArch: core:  0, cta: 1 initialized @(3523,648356)
GPGPU-Sim uArch: Shader 5 finished CTA #5 (3529,648356), 5 CTAs running
GPGPU-Sim uArch: core:  5, cta: 5 initialized @(3530,648356)
GPGPU-Sim uArch: Shader 3 finished CTA #4 (3536,648356), 5 CTAs running
GPGPU-Sim uArch: Shader 11 finished CTA #2 (3536,648356), 5 CTAs running
GPGPU-Sim uArch: core: 11, cta: 2 initialized @(3537,648356)
GPGPU-Sim uArch: core:  3, cta: 4 initialized @(3537,648356)
GPGPU-Sim uArch: Shader 0 finished CTA #3 (3537,648356), 5 CTAs running
GPGPU-Sim uArch: core:  0, cta: 3 initialized @(3538,648356)
GPGPU-Sim uArch: Shader 2 finished CTA #1 (3540,648356), 5 CTAs running
GPGPU-Sim uArch: Shader 2 finished CTA #2 (3540,648356), 4 CTAs running
GPGPU-Sim uArch: Shader 13 finished CTA #4 (3540,648356), 5 CTAs running
GPGPU-Sim uArch: core:  2, cta: 1 initialized @(3541,648356)
GPGPU-Sim uArch: core: 13, cta: 4 initialized @(3541,648356)
GPGPU-Sim uArch: core:  2, cta: 2 initialized @(3542,648356)
GPGPU-Sim uArch: Shader 5 finished CTA #0 (3546,648356), 5 CTAs running
GPGPU-Sim uArch: core:  5, cta: 0 initialized @(3547,648356)
GPGPU-Sim uArch: Shader 9 finished CTA #5 (3563,648356), 5 CTAs running
GPGPU-Sim uArch: core:  9, cta: 5 initialized @(3564,648356)
GPGPU-Sim uArch: Shader 3 finished CTA #0 (3567,648356), 5 CTAs running
GPGPU-Sim uArch: core:  3, cta: 0 initialized @(3568,648356)
GPGPU-Sim uArch: Shader 0 finished CTA #4 (3579,648356), 5 CTAs running
GPGPU-Sim uArch: core:  0, cta: 4 initialized @(3580,648356)
GPGPU-Sim uArch: Shader 12 finished CTA #4 (3582,648356), 5 CTAs running
GPGPU-Sim uArch: core: 12, cta: 4 initialized @(3583,648356)
GPGPU-Sim uArch: Shader 9 finished CTA #0 (3591,648356), 5 CTAs running
GPGPU-Sim uArch: core:  9, cta: 0 initialized @(3592,648356)
GPGPU-Sim uArch: Shader 13 finished CTA #5 (3602,648356), 5 CTAs running
GPGPU-Sim uArch: core: 13, cta: 5 initialized @(3603,648356)
GPGPU-Sim uArch: Shader 12 finished CTA #5 (3621,648356), 5 CTAs running
GPGPU-Sim uArch: core: 12, cta: 5 initialized @(3622,648356)
GPGPU-Sim uArch: Shader 0 finished CTA #5 (3641,648356), 5 CTAs running
GPGPU-Sim uArch: core:  0, cta: 5 initialized @(3642,648356)
GPGPU-Sim uArch: Shader 13 finished CTA #1 (3662,648356), 5 CTAs running
GPGPU-Sim uArch: core: 13, cta: 1 initialized @(3663,648356)
GPGPU-Sim uArch: Shader 13 finished CTA #0 (3672,648356), 5 CTAs running
GPGPU-Sim uArch: core: 13, cta: 0 initialized @(3673,648356)
GPGPU-Sim uArch: Shader 0 finished CTA #0 (3680,648356), 5 CTAs running
GPGPU-Sim uArch: Shader 13 finished CTA #2 (3680,648356), 5 CTAs running
GPGPU-Sim uArch: core:  0, cta: 0 initialized @(3681,648356)
GPGPU-Sim uArch: core: 13, cta: 2 initialized @(3681,648356)
GPGPU-Sim uArch: Shader 12 finished CTA #0 (3694,648356), 5 CTAs running
GPGPU-Sim uArch: core: 12, cta: 0 initialized @(3695,648356)
GPGPU-Sim uArch: Shader 4 finished CTA #5 (3713,648356), 5 CTAs running
GPGPU-Sim uArch: core:  4, cta: 5 initialized @(3714,648356)
GPGPU-Sim uArch: Shader 4 finished CTA #0 (4014,648356), 5 CTAs running
GPGPU-Sim uArch: core:  4, cta: 0 initialized @(4015,648356)
GPGPU-Sim uArch: Shader 12 finished CTA #1 (4044,648356), 5 CTAs running
GPGPU-Sim uArch: core: 12, cta: 1 initialized @(4045,648356)
GPGPU-Sim uArch: Shader 8 finished CTA #2 (4080,648356), 5 CTAs running
GPGPU-Sim uArch: core:  8, cta: 2 initialized @(4081,648356)
GPGPU-Sim uArch: Shader 11 finished CTA #3 (4130,648356), 5 CTAs running
GPGPU-Sim uArch: core: 11, cta: 3 initialized @(4131,648356)
GPGPU-Sim uArch: Shader 1 finished CTA #1 (4286,648356), 5 CTAs running
GPGPU-Sim uArch: core:  1, cta: 1 initialized @(4287,648356)
GPGPU-Sim uArch: Shader 7 finished CTA #2 (4407,648356), 5 CTAs running
GPGPU-Sim uArch: core:  7, cta: 2 initialized @(4408,648356)
GPGPU-Sim uArch: Shader 2 finished CTA #4 (4454,648356), 5 CTAs running
GPGPU-Sim uArch: core:  2, cta: 4 initialized @(4455,648356)
GPGPU-Sim uArch: Shader 11 finished CTA #4 (4490,648356), 5 CTAs running
GPGPU-Sim uArch: core: 11, cta: 4 initialized @(4491,648356)
GPGPU-Sim uArch: Shader 4 finished CTA #2 (4592,648356), 5 CTAs running
GPGPU-Sim uArch: core:  4, cta: 2 initialized @(4593,648356)
GPGPU-Sim uArch: Shader 8 finished CTA #3 (4606,648356), 5 CTAs running
GPGPU-Sim uArch: core:  8, cta: 3 initialized @(4607,648356)
GPGPU-Sim uArch: Shader 8 finished CTA #4 (4628,648356), 5 CTAs running
GPGPU-Sim uArch: core:  8, cta: 4 initialized @(4629,648356)
GPGPU-Sim uArch: Shader 6 finished CTA #3 (4691,648356), 5 CTAs running
GPGPU-Sim uArch: core:  6, cta: 3 initialized @(4692,648356)
GPGPU-Sim uArch: Shader 13 finished CTA #3 (4711,648356), 5 CTAs running
GPGPU-Sim uArch: core: 13, cta: 3 initialized @(4712,648356)
GPGPU-Sim uArch: Shader 9 finished CTA #1 (4730,648356), 5 CTAs running
GPGPU-Sim uArch: core:  9, cta: 1 initialized @(4731,648356)
GPGPU-Sim uArch: Shader 4 finished CTA #3 (4875,648356), 5 CTAs running
GPGPU-Sim uArch: core:  4, cta: 3 initialized @(4876,648356)
GPGPU-Sim uArch: Shader 7 finished CTA #3 (4894,648356), 5 CTAs running
GPGPU-Sim uArch: core:  7, cta: 3 initialized @(4895,648356)
GPGPU-Sim uArch: Shader 2 finished CTA #5 (4968,648356), 5 CTAs running
GPGPU-Sim uArch: core:  2, cta: 5 initialized @(4969,648356)
GPGPU-Sim uArch: Shader 1 finished CTA #2 (4972,648356), 5 CTAs running
GPGPU-Sim uArch: core:  1, cta: 2 initialized @(4973,648356)
GPGPU-Sim uArch: Shader 6 finished CTA #4 (4993,648356), 5 CTAs running
GPGPU-Sim uArch: core:  6, cta: 4 initialized @(4994,648356)
GPGPU-Sim uArch: Shader 14 finished CTA #2 (5017,648356), 5 CTAs running
GPGPU-Sim uArch: core: 14, cta: 2 initialized @(5018,648356)
GPGPU-Sim uArch: Shader 6 finished CTA #5 (5039,648356), 5 CTAs running
GPGPU-Sim uArch: core:  6, cta: 5 initialized @(5040,648356)
GPGPU-Sim uArch: Shader 8 finished CTA #5 (5085,648356), 5 CTAs running
GPGPU-Sim uArch: core:  8, cta: 5 initialized @(5086,648356)
GPGPU-Sim uArch: Shader 14 finished CTA #3 (5151,648356), 5 CTAs running
GPGPU-Sim uArch: core: 14, cta: 3 initialized @(5152,648356)
GPGPU-Sim uArch: Shader 3 finished CTA #1 (5157,648356), 5 CTAs running
GPGPU-Sim uArch: core:  3, cta: 1 initialized @(5158,648356)
GPGPU-Sim uArch: Shader 13 finished CTA #4 (5158,648356), 5 CTAs running
GPGPU-Sim uArch: core: 13, cta: 4 initialized @(5159,648356)
GPGPU-Sim uArch: Shader 10 finished CTA #2 (5171,648356), 5 CTAs running
GPGPU-Sim uArch: core: 10, cta: 2 initialized @(5172,648356)
GPGPU-Sim uArch: Shader 5 finished CTA #1 (5181,648356), 5 CTAs running
GPGPU-Sim uArch: core:  5, cta: 1 initialized @(5182,648356)
GPGPU-Sim uArch: Shader 9 finished CTA #2 (5185,648356), 5 CTAs running
GPGPU-Sim uArch: core:  9, cta: 2 initialized @(5186,648356)
GPGPU-Sim uArch: Shader 8 finished CTA #0 (5197,648356), 5 CTAs running
GPGPU-Sim uArch: core:  8, cta: 0 initialized @(5198,648356)
GPGPU-Sim uArch: Shader 11 finished CTA #5 (5207,648356), 5 CTAs running
GPGPU-Sim uArch: core: 11, cta: 5 initialized @(5208,648356)
GPGPU-Sim uArch: Shader 4 finished CTA #1 (5225,648356), 5 CTAs running
GPGPU-Sim uArch: core:  4, cta: 1 initialized @(5226,648356)
GPGPU-Sim uArch: Shader 2 finished CTA #0 (5235,648356), 5 CTAs running
GPGPU-Sim uArch: core:  2, cta: 0 initialized @(5236,648356)
GPGPU-Sim uArch: Shader 5 finished CTA #2 (5254,648356), 5 CTAs running
GPGPU-Sim uArch: core:  5, cta: 2 initialized @(5255,648356)
GPGPU-Sim uArch: Shader 12 finished CTA #2 (5267,648356), 5 CTAs running
GPGPU-Sim uArch: core: 12, cta: 2 initialized @(5268,648356)
GPGPU-Sim uArch: Shader 4 finished CTA #4 (5269,648356), 5 CTAs running
GPGPU-Sim uArch: core:  4, cta: 4 initialized @(5270,648356)
GPGPU-Sim uArch: Shader 13 finished CTA #5 (5283,648356), 5 CTAs running
GPGPU-Sim uArch: core: 13, cta: 5 initialized @(5284,648356)
GPGPU-Sim uArch: Shader 14 finished CTA #4 (5291,648356), 5 CTAs running
GPGPU-Sim uArch: core: 14, cta: 4 initialized @(5292,648356)
GPGPU-Sim uArch: Shader 12 finished CTA #3 (5324,648356), 5 CTAs running
GPGPU-Sim uArch: core: 12, cta: 3 initialized @(5325,648356)
GPGPU-Sim uArch: Shader 7 finished CTA #4 (5329,648356), 5 CTAs running
GPGPU-Sim uArch: core:  7, cta: 4 initialized @(5330,648356)
GPGPU-Sim uArch: Shader 0 finished CTA #2 (5343,648356), 5 CTAs running
GPGPU-Sim uArch: core:  0, cta: 2 initialized @(5344,648356)
GPGPU-Sim uArch: Shader 11 finished CTA #0 (5347,648356), 5 CTAs running
GPGPU-Sim uArch: core: 11, cta: 0 initialized @(5348,648356)
GPGPU-Sim uArch: Shader 3 finished CTA #5 (5425,648356), 5 CTAs running
GPGPU-Sim uArch: Shader 7 finished CTA #5 (5425,648356), 5 CTAs running
GPGPU-Sim uArch: core:  3, cta: 5 initialized @(5426,648356)
GPGPU-Sim uArch: core:  7, cta: 5 initialized @(5426,648356)
GPGPU-Sim uArch: Shader 3 finished CTA #2 (5435,648356), 5 CTAs running
GPGPU-Sim uArch: core:  3, cta: 2 initialized @(5436,648356)
GPGPU-Sim uArch: Shader 10 finished CTA #3 (5441,648356), 5 CTAs running
GPGPU-Sim uArch: core: 10, cta: 3 initialized @(5442,648356)
GPGPU-Sim uArch: Shader 2 finished CTA #1 (5463,648356), 5 CTAs running
GPGPU-Sim uArch: core:  2, cta: 1 initialized @(5464,648356)
GPGPU-Sim uArch: Shader 0 finished CTA #3 (5465,648356), 5 CTAs running
GPGPU-Sim uArch: core:  0, cta: 3 initialized @(5466,648356)
GPGPU-Sim uArch: Shader 8 finished CTA #1 (5467,648356), 5 CTAs running
GPGPU-Sim uArch: core:  8, cta: 1 initialized @(5468,648356)
GPGPU-Sim uArch: Shader 1 finished CTA #3 (5468,648356), 5 CTAs running
GPGPU-Sim uArch: core:  1, cta: 3 initialized @(5469,648356)
GPGPU-Sim uArch: Shader 14 finished CTA #5 (5531,648356), 5 CTAs running
GPGPU-Sim uArch: core: 14, cta: 5 initialized @(5532,648356)
GPGPU-Sim uArch: Shader 5 finished CTA #4 (5547,648356), 5 CTAs running
GPGPU-Sim uArch: core:  5, cta: 4 initialized @(5548,648356)
GPGPU-Sim uArch: Shader 4 finished CTA #5 (5558,648356), 5 CTAs running
GPGPU-Sim uArch: core:  4, cta: 5 initialized @(5559,648356)
GPGPU-Sim uArch: Shader 7 finished CTA #0 (5614,648356), 5 CTAs running
GPGPU-Sim uArch: core:  7, cta: 0 initialized @(5615,648356)
GPGPU-Sim uArch: Shader 6 finished CTA #0 (5619,648356), 5 CTAs running
GPGPU-Sim uArch: core:  6, cta: 0 initialized @(5620,648356)
GPGPU-Sim uArch: Shader 5 finished CTA #3 (5669,648356), 5 CTAs running
GPGPU-Sim uArch: core:  5, cta: 3 initialized @(5670,648356)
GPGPU-Sim uArch: Shader 10 finished CTA #4 (5672,648356), 5 CTAs running
GPGPU-Sim uArch: core: 10, cta: 4 initialized @(5673,648356)
GPGPU-Sim uArch: Shader 4 finished CTA #0 (5674,648356), 5 CTAs running
GPGPU-Sim uArch: core:  4, cta: 0 initialized @(5675,648356)
GPGPU-Sim uArch: Shader 9 finished CTA #3 (5675,648356), 5 CTAs running
GPGPU-Sim uArch: core:  9, cta: 3 initialized @(5676,648356)
GPGPU-Sim uArch: Shader 8 finished CTA #2 (5703,648356), 5 CTAs running
GPGPU-Sim uArch: core:  8, cta: 2 initialized @(5704,648356)
GPGPU-Sim uArch: Shader 2 finished CTA #2 (5708,648356), 5 CTAs running
GPGPU-Sim uArch: core:  2, cta: 2 initialized @(5709,648356)
GPGPU-Sim uArch: Shader 12 finished CTA #4 (5709,648356), 5 CTAs running
GPGPU-Sim uArch: core: 12, cta: 4 initialized @(5710,648356)
GPGPU-Sim uArch: Shader 5 finished CTA #5 (5727,648356), 5 CTAs running
GPGPU-Sim uArch: core:  5, cta: 5 initialized @(5728,648356)
GPGPU-Sim uArch: Shader 12 finished CTA #5 (5744,648356), 5 CTAs running
GPGPU-Sim uArch: core: 12, cta: 5 initialized @(5745,648356)
GPGPU-Sim uArch: Shader 11 finished CTA #1 (5745,648356), 5 CTAs running
GPGPU-Sim uArch: core: 11, cta: 1 initialized @(5746,648356)
GPGPU-Sim uArch: Shader 3 finished CTA #3 (5760,648356), 5 CTAs running
GPGPU-Sim uArch: core:  3, cta: 3 initialized @(5761,648356)
GPGPU-Sim uArch: Shader 2 finished CTA #3 (5776,648356), 5 CTAs running
GPGPU-Sim uArch: core:  2, cta: 3 initialized @(5777,648356)
GPGPU-Sim uArch: Shader 10 finished CTA #5 (5781,648356), 5 CTAs running
GPGPU-Sim uArch: core: 10, cta: 5 initialized @(5782,648356)
GPGPU-Sim uArch: Shader 14 finished CTA #0 (5811,648356), 5 CTAs running
GPGPU-Sim uArch: core: 14, cta: 0 initialized @(5812,648356)
GPGPU-Sim uArch: Shader 10 finished CTA #0 (5849,648356), 5 CTAs running
GPGPU-Sim uArch: core: 10, cta: 0 initialized @(5850,648356)
GPGPU-Sim uArch: Shader 0 finished CTA #1 (5901,648356), 5 CTAs running
GPGPU-Sim uArch: core:  0, cta: 1 initialized @(5902,648356)
GPGPU-Sim uArch: Shader 7 finished CTA #1 (5907,648356), 5 CTAs running
GPGPU-Sim uArch: core:  7, cta: 1 initialized @(5908,648356)
GPGPU-Sim uArch: Shader 13 finished CTA #0 (5921,648356), 5 CTAs running
GPGPU-Sim uArch: core: 13, cta: 0 initialized @(5922,648356)
GPGPU-Sim uArch: Shader 3 finished CTA #0 (5925,648356), 5 CTAs running
GPGPU-Sim uArch: Shader 10 finished CTA #1 (5925,648356), 5 CTAs running
GPGPU-Sim uArch: core:  3, cta: 0 initialized @(5926,648356)
GPGPU-Sim uArch: core: 10, cta: 1 initialized @(5926,648356)
GPGPU-Sim uArch: Shader 1 finished CTA #4 (5961,648356), 5 CTAs running
GPGPU-Sim uArch: core:  1, cta: 4 initialized @(5962,648356)
GPGPU-Sim uArch: Shader 4 finished CTA #2 (5976,648356), 5 CTAs running
GPGPU-Sim uArch: core:  4, cta: 2 initialized @(5977,648356)
GPGPU-Sim uArch: Shader 6 finished CTA #1 (5981,648356), 5 CTAs running
GPGPU-Sim uArch: core:  6, cta: 1 initialized @(5982,648356)
GPGPU-Sim uArch: Shader 14 finished CTA #1 (5993,648356), 5 CTAs running
GPGPU-Sim uArch: core: 14, cta: 1 initialized @(5994,648356)
GPGPU-Sim uArch: Shader 11 finished CTA #2 (5997,648356), 5 CTAs running
GPGPU-Sim uArch: core: 11, cta: 2 initialized @(5998,648356)
GPGPU-Sim uArch: Shader 0 finished CTA #4 (6008,648356), 5 CTAs running
GPGPU-Sim uArch: core:  0, cta: 4 initialized @(6009,648356)
GPGPU-Sim uArch: Shader 2 finished CTA #4 (6014,648356), 5 CTAs running
GPGPU-Sim uArch: core:  2, cta: 4 initialized @(6015,648356)
GPGPU-Sim uArch: Shader 1 finished CTA #5 (6017,648356), 5 CTAs running
GPGPU-Sim uArch: core:  1, cta: 5 initialized @(6018,648356)
GPGPU-Sim uArch: Shader 13 finished CTA #1 (6019,648356), 5 CTAs running
GPGPU-Sim uArch: core: 13, cta: 1 initialized @(6020,648356)
GPGPU-Sim uArch: Shader 0 finished CTA #5 (6033,648356), 5 CTAs running
GPGPU-Sim uArch: core:  0, cta: 5 initialized @(6034,648356)
GPGPU-Sim uArch: Shader 9 finished CTA #4 (6049,648356), 5 CTAs running
GPGPU-Sim uArch: core:  9, cta: 4 initialized @(6050,648356)
GPGPU-Sim uArch: Shader 6 finished CTA #2 (6051,648356), 5 CTAs running
GPGPU-Sim uArch: core:  6, cta: 2 initialized @(6052,648356)
GPGPU-Sim uArch: Shader 4 finished CTA #3 (6055,648356), 5 CTAs running
GPGPU-Sim uArch: core:  4, cta: 3 initialized @(6056,648356)
GPGPU-Sim uArch: Shader 5 finished CTA #0 (6073,648356), 5 CTAs running
GPGPU-Sim uArch: core:  5, cta: 0 initialized @(6074,648356)
GPGPU-Sim uArch: Shader 9 finished CTA #5 (6084,648356), 5 CTAs running
GPGPU-Sim uArch: core:  9, cta: 5 initialized @(6085,648356)
GPGPU-Sim uArch: Shader 11 finished CTA #4 (6099,648356), 5 CTAs running
GPGPU-Sim uArch: core: 11, cta: 4 initialized @(6100,648356)
GPGPU-Sim uArch: Shader 8 finished CTA #3 (6121,648356), 5 CTAs running
GPGPU-Sim uArch: core:  8, cta: 3 initialized @(6122,648356)
[...]
traffic_breakdown_memtocore[GLOBAL_ACC_R] = 29314664 {136:215549,}
traffic_breakdown_memtocore[GLOBAL_ACC_W] = 2615296 {8:326912,}
traffic_breakdown_memtocore[INST_ACC_R] = 8296 {136:61,}
maxmrqlatency = 235 
maxdqlatency = 0 
maxmflatency = 817 
averagemflatency = 191 
max_icnt2mem_latency = 504 
max_icnt2sh_latency = 726454 
mrq_lat_table:126075 	18073 	5513 	6096 	13749 	13405 	7432 	485 	0 	0 	0 	0 	0 	0 	0 	0 	0 	0 	0 	0 	0 	0 	0 	0 	0 	0 	0 	0 	0 	0 	0 	0 	
dq_lat_table:0 	0 	0 	0 	0 	0 	0 	0 	0 	0 	0 	0 	0 	0 	0 	0 	0 	0 	0 	0 	0 	0 	0 	0 	0 	0 	0 	0 	0 	0 	0 	0 	
mf_lat_table:0 	0 	0 	0 	0 	0 	0 	299495 	235372 	7609 	0 	0 	0 	0 	0 	0 	0 	0 	0 	0 	0 	0 	0 	0 	0 	0 	0 	0 	0 	0 	0 	0 	
icnt2mem_lat_table:0 	0 	0 	196617 	198379 	51208 	61681 	30495 	4157 	0 	0 	0 	0 	0 	0 	0 	0 	0 	0 	0 	0 	0 	0 	0 	
icnt2sh_lat_table:0 	0 	0 	85673 	97176 	31396 	1317 	2 	0 	80 	310 	842 	1625 	3288 	6556 	13209 	26640 	53113 	106471 	114778 	0 	0 	0 	0 	
mf_lat_pw_table:0 	0 	0 	0 	0 	0 	0 	1 	0 	0 	0 	0 	0 	0 	0 	0 	0 	0 	0 	0 	0 	0 	0 	0 	0 	0 	0 	0 	0 	0 	0 	0 	
maximum concurrent accesses to same row:
dram[0]:        32        32        32        32        32        32        32        32        32        32        32        32        32        32        32        32 
dram[1]:        32        32        32        32        32        32        32        32        32        32        32        32        32        32        32        32 
dram[2]:        32        32        32        32        32        32        32        32        32        32        32        32        32        32        32        32 
dram[3]:        32        32        32        32        32        32        32        32        32        32        32        32        32        32        32        32 
dram[4]:        32        32        32        32        32        32        32        32        32        32        32        32        32        32        32        32 
dram[5]:        32        32        32        32        32        32        32        32        32        32        32        32        32        32        32        32 
maximum service time to same row:
dram[0]:     15958     15646     15668     15593     15606     15707     15702     15695     15582     15622     15517     15540     15685     15523     15777     15569 
dram[1]:     15808     15684     15808     15609     15676     15695     15659     15664     15632     15598     15578     15520     15555     15442     15655     15519 
dram[2]:     15556     15446     15541     15403     15539     15531     15457     15695     15499     15565     15476     15524     15535     15484     15665     15486 
dram[3]:     15715     15454     15609     15502     15483     15525     15389     15660     15391     15635     15429     15584     15480     15484     15613     15438 
dram[4]:     15429     15562     15386     15531     15423     15573     15367     15597     15349     15574     15435     15601     15456     15461     15536     15476 
dram[5]:     15691     15649     15715     15524     15678     15505     15662     15504     15596     15430     15599     15464     15560     15508     15453     15556 
average row accesses per activate:
dram[0]:  7.746032  9.473170  6.832740  7.272727  7.305660  8.000000  8.161943  8.578723  7.694656  7.875000  6.787879  6.697674  7.740458  7.914397  8.000000  8.615385 
dram[1]:  7.894737  8.908257  6.906475  6.760563  7.622047  7.253731  8.506330  8.195122  7.277978  8.435146  6.503226  7.000000  7.483395  7.763359  8.000000  8.689655 
dram[2]:  8.400862  9.203792  7.300380  6.981818  7.660079  7.120879  8.161943  8.652361  7.937008  8.578723  6.588235  6.566775  7.474265  7.342960  8.064000  9.040359 
dram[3]:  7.983606  8.592920  7.245283  6.906475  7.629921  7.476923  8.400000  9.163636  8.000000  8.228572  6.833898  7.024390  7.945312  7.793103  7.607547  7.753846 
dram[4]:  8.419913  8.949308  6.832740  6.857143  7.200000  8.129707  8.195122  8.435146  7.439115  8.096386  6.461538  6.631579  7.883721  7.435897  7.724138  8.330579 
dram[5]:  8.299146  8.517544  6.906475  6.552901  7.593750  7.139706  8.689655  8.435146  8.064000  8.470589  6.765100  6.675497  7.450550  7.539033  7.875000  8.365146 
average row locality = 190828/24827 = 7.686309
number of total memory accesses made:
dram[0]:         0         0         0         0         0         0         0         0         0         0         0         0         0         0         0         0 
dram[1]:         0         0         0         0         0         0         0         0         0         0         0         0         0         0         0         0 
dram[2]:         0         0         0         0         0         0         0         0         0         0         0         0         0         0         0         0 
dram[3]:         0         0         0         0         0         0         0         0         0         0         0         0         0         0         0         0 
dram[4]:         0         0         0         0         0         0         0         0         0         0         0         0         0         0         0         0 
dram[5]:         0         0         0         0         0         0         0         0         0         0         0         0         0         0         0         0 
total accesses: 0
min_bank_accesses = 0!
min_chip_accesses = 0!
number of total read accesses:
dram[0]:      1688      1680      1664      1664      1672      1676      1728      1728      1728      1728      1728      1728      1732      1734      1728      1728 
dram[1]:      1686      1680      1664      1664      1672      1676      1728      1728      1728      1728      1728      1728      1732      1734      1728      1728 
dram[2]:      1685      1680      1664      1664      1672      1676      1728      1728      1728      1728      1728      1728      1734      1734      1728      1728 
dram[3]:      1684      1680      1664      1664      1672      1676      1728      1728      1728      1728      1728      1728      1734      1734      1728      1728 
dram[4]:      1682      1680      1664      1664      1676      1676      1728      1728      1728      1728      1728      1728      1734      1733      1728      1728 
dram[5]:      1680      1680      1664      1664      1676      1676      1728      1728      1728      1728      1728      1728      1734      1732      1728      1728 
total reads: 163994
bank skew: 1734/1664 = 1.04
chip skew: 27334/27330 = 1.00
number of total write accesses:
dram[0]:       264       262       256       256       264       268       288       288       288       288       288       288       296       300       288       288 
dram[1]:       264       262       256       256       264       268       288       288       288       288       288       288       296       300       288       288 
dram[2]:       264       262       256       256       266       268       288       288       288       288       288       288       299       300       288       288 
dram[3]:       264       262       256       256       266       268       288       288       288       288       288       288       300       300       288       288 
dram[4]:       263       262       256       256       268       267       288       288       288       288       288       288       300       297       288       288 
dram[5]:       262       262       256       256       268       266       288       288       288       288       288       288       300       296       288       288 
total reads: 26834
bank skew: 300/256 = 1.17
chip skew: 4476/4470 = 1.00
average mf latency per bank:
dram[0]:        434       453       434       451       415       439       433       456       441       438       435       430      1699      2334       433       446
dram[1]:        438       436       436       435       423       423       429       437       427       435       427       433      1706      2335       435       438
dram[2]:        441       439       450       441       437       429       457       461       451       454       444       442      2206      2329       443       436
dram[3]:        439       443       453       441       441       431       453       464       450       455       441       441      2349      2339       433       434
dram[4]:        431       458       437       452       431       432       449       446       438       437       429       429      2325      1854       436       431
dram[5]:        436       439       439       446       426       436       451       447       444       447       431       433      2319      1690       439       425
maximum mf latency per bank:
dram[0]:        685       738       661       790       696       723       765       730       712       653       715       745       747       700       715       679
dram[1]:        684       682       713       700       690       666       682       627       602       696       664       808       718       813       649       748
dram[2]:        745       709       703       709       786       627       802       724       734       686       773       757       726       744       718       735
dram[3]:        727       710       751       686       719       707       705       730       671       667       690       662       775       772       690       617
dram[4]:        683       817       702       766       673       745       714       680       693       664       733       675       707       712       698       679
dram[5]:        629       672       640       656       656       704       707       687       760       662       643       710       740       702       682       754
Memory Partition 0: 
Cache L2_bank_000:
MSHR contents

Cache L2_bank_001:
MSHR contents

In Dram Latency Queue (total = 0): 
DRAM[0]: 16 bks, busW=4 BL=8 CL=12, tRRD=2 tCCD=6, tRCD=12 tRAS=28 tRP=12 tRC=40
n_cmd=945385 n_nop=873577 n_act=4113 n_pre=4097 n_req=31804 n_rd=54668 n_write=8930 bw_util=0.1345
n_activity=357506 dram_eff=0.3558
bk0: 3376a 925319i bk1: 3360a 925790i bk2: 3328a 923781i bk3: 3328a 923846i bk4: 3344a 924896i bk5: 3352a 924169i bk6: 3456a 925539i bk7: 3456a 924974i bk8: 3456a 924575i bk9: 3456a 923762i bk10: 3456a 922402i bk11: 3456a 921459i bk12: 3464a 923838i bk13: 3468a 922425i bk14: 3456a 925932i bk15: 3456a 925628i 
dram_util_bins: 0 0 0 0 0 0 0 0 0 0
dram_eff_bins: 0 0 0 0 0 0 0 0 0 0
mrqq: max=16 avg=0.400025
Memory Partition 1: 
Cache L2_bank_002:
MSHR contents

Cache L2_bank_003:
MSHR contents

In Dram Latency Queue (total = 0): 
DRAM[1]: 16 bks, busW=4 BL=8 CL=12, tRRD=2 tCCD=6, tRCD=12 tRAS=28 tRP=12 tRC=40
n_cmd=945385 n_nop=873481 n_act=4163 n_pre=4147 n_req=31802 n_rd=54664 n_write=8930 bw_util=0.1345
n_activity=357740 dram_eff=0.3555
bk0: 3372a 925348i bk1: 3360a 925077i bk2: 3328a 923417i bk3: 3328a 923025i bk4: 3344a 924789i bk5: 3352a 923683i bk6: 3456a 926458i bk7: 3456a 924830i bk8: 3456a 924324i bk9: 3456a 924705i bk10: 3456a 921780i bk11: 3456a 921044i bk12: 3464a 922804i bk13: 3468a 921916i bk14: 3456a 925760i bk15: 3456a 925487i 
dram_util_bins: 0 0 0 0 0 0 0 0 0 0
dram_eff_bins: 0 0 0 0 0 0 0 0 0 0
mrqq: max=16 avg=0.399725
Memory Partition 2: 
Cache L2_bank_004:
MSHR contents

Cache L2_bank_005:
MSHR contents

In Dram Latency Queue (total = 0): 
DRAM[2]: 16 bks, busW=4 BL=8 CL=12, tRRD=2 tCCD=6, tRCD=12 tRAS=28 tRP=12 tRC=40
n_cmd=945385 n_nop=873574 n_act=4111 n_pre=4095 n_req=31808 n_rd=54666 n_write=8939 bw_util=0.1346
n_activity=357399 dram_eff=0.3559
bk0: 3370a 925623i bk1: 3360a 925486i bk2: 3328a 924547i bk3: 3328a 923274i bk4: 3344a 924252i bk5: 3352a 922775i bk6: 3456a 925939i bk7: 3456a 924950i bk8: 3456a 924378i bk9: 3456a 924531i bk10: 3456a 921860i bk11: 3456a 921078i bk12: 3468a 922490i bk13: 3468a 921879i bk14: 3456a 925982i bk15: 3456a 925826i 
dram_util_bins: 0 0 0 0 0 0 0 0 0 0
dram_eff_bins: 0 0 0 0 0 0 0 0 0 0
mrqq: max=16 avg=0.390668
Memory Partition 3: 
Cache L2_bank_006:
MSHR contents

Cache L2_bank_007:
MSHR contents

In Dram Latency Queue (total = 0): 
DRAM[3]: 16 bks, busW=4 BL=8 CL=12, tRRD=2 tCCD=6, tRCD=12 tRAS=28 tRP=12 tRC=40
n_cmd=945385 n_nop=873581 n_act=4108 n_pre=4092 n_req=31808 n_rd=54664 n_write=8940 bw_util=0.1346
n_activity=357938 dram_eff=0.3554
bk0: 3368a 925185i bk1: 3360a 924632i bk2: 3328a 924168i bk3: 3328a 922718i bk4: 3344a 924786i bk5: 3352a 923287i bk6: 3456a 925880i bk7: 3456a 925911i bk8: 3456a 924783i bk9: 3456a 924195i bk10: 3456a 921956i bk11: 3456a 922532i bk12: 3468a 922934i bk13: 3468a 922636i bk14: 3456a 926045i bk15: 3456a 924654i 
dram_util_bins: 0 0 0 0 0 0 0 0 0 0
dram_eff_bins: 0 0 0 0 0 0 0 0 0 0
mrqq: max=16 avg=0.401594
Memory Partition 4: 
Cache L2_bank_008:
MSHR contents

Cache L2_bank_009:
MSHR contents

In Dram Latency Queue (total = 0): 
DRAM[4]: 16 bks, busW=4 BL=8 CL=12, tRRD=2 tCCD=6, tRCD=12 tRAS=28 tRP=12 tRC=40
n_cmd=945385 n_nop=873454 n_act=4173 n_pre=4157 n_req=31806 n_rd=54666 n_write=8935 bw_util=0.1346
n_activity=356949 dram_eff=0.3564
bk0: 3364a 926507i bk1: 3360a 925673i bk2: 3328a 924009i bk3: 3328a 923529i bk4: 3352a 923895i bk5: 3352a 924228i bk6: 3456a 925968i bk7: 3456a 925435i bk8: 3456a 924387i bk9: 3456a 924299i bk10: 3456a 922168i bk11: 3456a 921846i bk12: 3468a 922752i bk13: 3466a 922692i bk14: 3456a 925827i bk15: 3456a 925079i 
dram_util_bins: 0 0 0 0 0 0 0 0 0 0
dram_eff_bins: 0 0 0 0 0 0 0 0 0 0
mrqq: max=16 avg=0.386433
Memory Partition 5: 
Cache L2_bank_010:
MSHR contents

Cache L2_bank_011:
MSHR contents

In Dram Latency Queue (total = 0): 
DRAM[5]: 16 bks, busW=4 BL=8 CL=12, tRRD=2 tCCD=6, tRCD=12 tRAS=28 tRP=12 tRC=40
n_cmd=945385 n_nop=873493 n_act=4159 n_pre=4143 n_req=31800 n_rd=54660 n_write=8930 bw_util=0.1345
n_activity=356862 dram_eff=0.3564
bk0: 3360a 925313i bk1: 3360a 925650i bk2: 3328a 924023i bk3: 3328a 923583i bk4: 3352a 924603i bk5: 3352a 923077i bk6: 3456a 926457i bk7: 3456a 925355i bk8: 3456a 923804i bk9: 3456a 924528i bk10: 3456a 922287i bk11: 3456a 921150i bk12: 3468a 922780i bk13: 3464a 921957i bk14: 3456a 925509i bk15: 3456a 925226i 
dram_util_bins: 0 0 0 0 0 0 0 0 0 0
dram_eff_bins: 0 0 0 0 0 0 0 0 0 0
mrqq: max=16 avg=0.393574

========= L2 cache stats =========
L2_cache_bank[0]: Access = 39685, Miss = 13668, Miss_rate = 0.344, Pending_hits = 1870, Reservation_fails = 422
L2_cache_bank[1]: Access = 47989, Miss = 13666, Miss_rate = 0.285, Pending_hits = 1929, Reservation_fails = 0
L2_cache_bank[2]: Access = 39672, Miss = 13666, Miss_rate = 0.344, Pending_hits = 1852, Reservation_fails = 184
L2_cache_bank[3]: Access = 47967, Miss = 13666, Miss_rate = 0.285, Pending_hits = 1829, Reservation_fails = 0
L2_cache_bank[4]: Access = 45934, Miss = 13667, Miss_rate = 0.298, Pending_hits = 1909, Reservation_fails = 87
L2_cache_bank[5]: Access = 47975, Miss = 13666, Miss_rate = 0.285, Pending_hits = 1832, Reservation_fails = 0
L2_cache_bank[6]: Access = 47989, Miss = 13666, Miss_rate = 0.285, Pending_hits = 1810, Reservation_fails = 0
L2_cache_bank[7]: Access = 47989, Miss = 13666, Miss_rate = 0.285, Pending_hits = 1861, Reservation_fails = 0
L2_cache_bank[8]: Access = 47993, Miss = 13668, Miss_rate = 0.285, Pending_hits = 1824, Reservation_fails = 0
L2_cache_bank[9]: Access = 41751, Miss = 13665, Miss_rate = 0.327, Pending_hits = 1887, Reservation_fails = 16
L2_cache_bank[10]: Access = 47980, Miss = 13666, Miss_rate = 0.285, Pending_hits = 1829, Reservation_fails = 0
L2_cache_bank[11]: Access = 39613, Miss = 13664, Miss_rate = 0.345, Pending_hits = 1802, Reservation_fails = 0
L2_total_cache_accesses = 542537
L2_total_cache_misses = 163994
L2_total_cache_miss_rate = 0.3023
L2_total_cache_pending_hits = 22234
L2_total_cache_reservation_fails = 709
L2_total_cache_breakdown:
	L2_cache_stats_breakdown[GLOBAL_ACC_R][HIT] = 29477
	L2_cache_stats_breakdown[GLOBAL_ACC_R][HIT_RESERVED] = 22150
	L2_cache_stats_breakdown[GLOBAL_ACC_R][MISS] = 163922
	L2_cache_stats_breakdown[GLOBAL_ACC_R][RESERVATION_FAIL] = 16
	L2_cache_stats_breakdown[CONST_ACC_R][HIT] = 7
	L2_cache_stats_breakdown[CONST_ACC_R][HIT_RESERVED] = 6
	L2_cache_stats_breakdown[CONST_ACC_R][MISS] = 2
	L2_cache_stats_breakdown[CONST_ACC_R][RESERVATION_FAIL] = 187
	L2_cache_stats_breakdown[GLOBAL_ACC_W][HIT] = 326784
	L2_cache_stats_breakdown[GLOBAL_ACC_W][HIT_RESERVED] = 63
	L2_cache_stats_breakdown[GLOBAL_ACC_W][MISS] = 65
	L2_cache_stats_breakdown[GLOBAL_ACC_W][RESERVATION_FAIL] = 2
	L2_cache_stats_breakdown[INST_ACC_R][HIT] = 41
	L2_cache_stats_breakdown[INST_ACC_R][HIT_RESERVED] = 15
	L2_cache_stats_breakdown[INST_ACC_R][MISS] = 5
	L2_cache_stats_breakdown[INST_ACC_R][RESERVATION_FAIL] = 504
L2_cache_data_port_util = 0.121
L2_cache_fill_port_util = 0.075

icnt_total_pkts_mem_to_simt=1405007
icnt_total_pkts_simt_to_mem=1374665
LD_mem_lat_dist  0 0 0 0 0 0 0 0 0 0 0 0 0 0 0 0 0 0 0 0 0 0 0 0 0 0 0
ST_mem_lat_dist  0 0 0 0 0 0 0 0 0 0 0 0 0 0 0 0 0 0 0 0 0 0 0 0 0 0 0
----------------------------Interconnect-DETAILS--------------------------------
Class 0:
Packet latency average = 42.6024
	minimum = 6
	maximum = 400
Network latency average = 27.1433
	minimum = 6
	maximum = 391
Slowest packet = 821536
Flit latency average = 21.5508
	minimum = 6
	maximum = 391
Slowest flit = 2737376
Fragmentation average = 0.130305
	minimum = 0
	maximum = 247
Injected packet rate average = 0.126291
	minimum = 0.109925 (at node 3)
	maximum = 0.142691 (at node 23)
Accepted packet rate average = 0.126291
	minimum = 0.109925 (at node 3)
	maximum = 0.142691 (at node 23)
Injected flit rate average = 0.340017
	minimum = 0.255035 (at node 3)
	maximum = 0.438111 (at node 23)
Accepted flit rate average= 0.340017
	minimum = 0.328416 (at node 26)
	maximum = 0.35633 (at node 8)
Injected packet length average = 2.69233
Accepted packet length average = 2.69233
Total in-flight flits = 0 (0 measured)
====== Overall Traffic Statistics ======
====== Traffic class 0 ======
Packet latency average = 27.475 (2 samples)
	minimum = 6 (2 samples)
	maximum = 231 (2 samples)
Network latency average = 18.9063 (2 samples)
	minimum = 6 (2 samples)
	maximum = 219 (2 samples)
Flit latency average = 15.4248 (2 samples)
	minimum = 6 (2 samples)
	maximum = 218.5 (2 samples)
Fragmentation average = 0.0651525 (2 samples)
	minimum = 0 (2 samples)
	maximum = 123.5 (2 samples)
Injected packet rate average = 0.0865313 (2 samples)
	minimum = 0.0549623 (2 samples)
	maximum = 0.110817 (2 samples)
Accepted packet rate average = 0.0865313 (2 samples)
	minimum = 0.0549623 (2 samples)
	maximum = 0.110817 (2 samples)
Injected flit rate average = 0.228923 (2 samples)
	minimum = 0.127518 (2 samples)
	maximum = 0.321764 (2 samples)
Accepted flit rate average = 0.228923 (2 samples)
	minimum = 0.164208 (2 samples)
	maximum = 0.274345 (2 samples)
Injected packet size average = 2.64556 (2 samples)
Accepted packet size average = 2.64556 (2 samples)
Hops average = 1 (2 samples)
----------------------------END-of-Interconnect-DETAILS-------------------------


gpgpu_simulation_time = 0 days, 0 hrs, 4 min, 0 sec (240 sec)
gpgpu_simulation_rate = 292923 (inst/sec)
gpgpu_simulation_rate = 3026 (cycle/sec)
GPGPU-Sim: synchronize waiting for inactive GPU simulation
GPGPU-Sim API: Stream Manager State
GPGPU-Sim: detected inactive GPU simulation thread

GPGPU-Sim PTX: cudaLaunch for 0x0x4013e0 (mode=performance simulation) on stream 0
GPGPU-Sim PTX: pushing kernel '_Z12covar_kernelPfS_' to stream 0, gridDim= (8,1,1) blockDim = (256,1,1) 
####  CUstream_st::push: Start pushing kernel: covar_kernel  ####
####  CUstream_st::push: covar_kernel encountered  ####
####  CUstream_st::push: Closing stream ####
GPGPU-Sim: synchronize waiting for inactive GPU simulation
GPGPU-Sim API: Stream Manager State
GPGPU-Sim: detected inactive GPU simulation thread
GPU Runtime: 239.405355s
CPU Runtime: 13.029075s
Non-Matching CPU-GPU Outputs Beyond Error Threshold of 1.05 Percent: 4194304
