

        *** GPGPU-Sim Simulator Version 3.2.2  [build 0] ***


GPGPU-Sim PTX: simulation mode 0 (can change with PTX_SIM_MODE_FUNC environment variable:
               1=functional simulation only, 0=detailed performance simulator)
GPGPU-Sim: Configuration options:

-network_mode                           1 # Interconnection network mode
-inter_config_file   config_fermi_islip.icnt # Interconnection network config file
-gpgpu_ptx_use_cuobjdump                    1 # Use cuobjdump to extract ptx and sass from binaries
-gpgpu_experimental_lib_support                    0 # Try to extract code from cuda libraries [Broken because of unknown cudaGetExportTable]
-gpgpu_ptx_convert_to_ptxplus                    0 # Convert SASS (native ISA) to ptxplus and run ptxplus
-gpgpu_ptx_force_max_capability                   20 # Force maximum compute capability
-gpgpu_ptx_inst_debug_to_file                    0 # Dump executed instructions' debug information to file
-gpgpu_ptx_inst_debug_file       inst_debug.txt # Executed instructions' debug output file
-gpgpu_ptx_inst_debug_thread_uid                    1 # Thread UID for executed instructions' debug output
-gpgpu_simd_model                       1 # 1 = post-dominator
-gpgpu_shader_core_pipeline              1536:32 # shader core pipeline config, i.e., {<nthread>:<warpsize>}
-gpgpu_tex_cache:l1  4:128:24,L:R:m:N:L,F:128:4,128:2 # per-shader L1 texture cache  (READ-ONLY) config  {<nsets>:<bsize>:<assoc>,<rep>:<wr>:<alloc>:<wr_alloc>,<mshr>:<N>:<merge>,<mq>:<rf>}
-gpgpu_const_cache:l1 64:64:2,L:R:f:N:L,A:2:32,4 # per-shader L1 constant memory cache  (READ-ONLY) config  {<nsets>:<bsize>:<assoc>,<rep>:<wr>:<alloc>:<wr_alloc>,<mshr>:<N>:<merge>,<mq>} 
-gpgpu_cache:il1     4:128:4,L:R:f:N:L,A:2:32,4 # shader L1 instruction cache config  {<nsets>:<bsize>:<assoc>,<rep>:<wr>:<alloc>:<wr_alloc>,<mshr>:<N>:<merge>,<mq>} 
-gpgpu_cache:dl1     32:128:4,L:L:m:N:H,A:32:8,8 # per-shader L1 data cache config  {<nsets>:<bsize>:<assoc>,<rep>:<wr>:<alloc>:<wr_alloc>,<mshr>:<N>:<merge>,<mq> | none}
-gpgpu_cache:dl1PrefL1                 none # per-shader L1 data cache config  {<nsets>:<bsize>:<assoc>,<rep>:<wr>:<alloc>:<wr_alloc>,<mshr>:<N>:<merge>,<mq> | none}
-gpgpu_cache:dl1PreShared                 none # per-shader L1 data cache config  {<nsets>:<bsize>:<assoc>,<rep>:<wr>:<alloc>:<wr_alloc>,<mshr>:<N>:<merge>,<mq> | none}
-gmem_skip_L1D                          0 # global memory access skip L1D cache (implements -Xptxas -dlcm=cg, default=no skip)
-gpgpu_perfect_mem                      0 # enable perfect memory mode (no cache miss)
-n_regfile_gating_group                    4 # group of lanes that should be read/written together)
-gpgpu_clock_gated_reg_file                    0 # enable clock gated reg file for power calculations
-gpgpu_clock_gated_lanes                    0 # enable clock gated lanes for power calculations
-gpgpu_shader_registers                32768 # Number of registers per shader core. Limits number of concurrent CTAs. (default 8192)
-gpgpu_shader_cta                       8 # Maximum number of concurrent CTAs in shader (default 8)
-gpgpu_num_cta_barriers                   16 # Maximum number of named barriers per CTA (default 16)
-gpgpu_n_clusters                      15 # number of processing clusters
-gpgpu_n_cores_per_cluster                    1 # number of simd cores per cluster
-gpgpu_n_cluster_ejection_buffer_size                    8 # number of packets in ejection buffer
-gpgpu_n_ldst_response_buffer_size                    2 # number of response packets in ld/st unit ejection buffer
-gpgpu_shmem_size                   16384 # Size of shared memory per shader core (default 16kB)
-gpgpu_shmem_size                   49152 # Size of shared memory per shader core (default 16kB)
-gpgpu_shmem_size_PrefL1                16384 # Size of shared memory per shader core (default 16kB)
-gpgpu_shmem_size_PrefShared                16384 # Size of shared memory per shader core (default 16kB)
-gpgpu_shmem_num_banks                   32 # Number of banks in the shared memory in each shader core (default 16)
-gpgpu_shmem_limited_broadcast                    0 # Limit shared memory to do one broadcast per cycle (default on)
-gpgpu_shmem_warp_parts                    1 # Number of portions a warp is divided into for shared memory bank conflict check 
-gpgpu_warpdistro_shader                   -1 # Specify which shader core to collect the warp size distribution from
-gpgpu_warp_issue_shader                    0 # Specify which shader core to collect the warp issue distribution from
-gpgpu_local_mem_map                    1 # Mapping from local memory space address to simulated GPU physical address space (default = enabled)
-gpgpu_num_reg_banks                   16 # Number of register banks (default = 8)
-gpgpu_reg_bank_use_warp_id                    0 # Use warp ID in mapping registers to banks (default = off)
-gpgpu_operand_collector_num_units_sp                    6 # number of collector units (default = 4)
-gpgpu_operand_collector_num_units_sfu                    8 # number of collector units (default = 4)
-gpgpu_operand_collector_num_units_mem                    2 # number of collector units (default = 2)
-gpgpu_operand_collector_num_units_gen                    0 # number of collector units (default = 0)
-gpgpu_operand_collector_num_in_ports_sp                    2 # number of collector unit in ports (default = 1)
-gpgpu_operand_collector_num_in_ports_sfu                    1 # number of collector unit in ports (default = 1)
-gpgpu_operand_collector_num_in_ports_mem                    1 # number of collector unit in ports (default = 1)
-gpgpu_operand_collector_num_in_ports_gen                    0 # number of collector unit in ports (default = 0)
-gpgpu_operand_collector_num_out_ports_sp                    2 # number of collector unit in ports (default = 1)
-gpgpu_operand_collector_num_out_ports_sfu                    1 # number of collector unit in ports (default = 1)
-gpgpu_operand_collector_num_out_ports_mem                    1 # number of collector unit in ports (default = 1)
-gpgpu_operand_collector_num_out_ports_gen                    0 # number of collector unit in ports (default = 0)
-gpgpu_coalesce_arch                   13 # Coalescing arch (default = 13, anything else is off for now)
-gpgpu_num_sched_per_core                    2 # Number of warp schedulers per core
-gpgpu_max_insn_issue_per_warp                    1 # Max number of instructions that can be issued per warp in one cycle by scheduler
-gpgpu_simt_core_sim_order                    1 # Select the simulation order of cores in a cluster (0=Fix, 1=Round-Robin)
-gpgpu_pipeline_widths        2,1,1,2,1,1,2 # Pipeline widths ID_OC_SP,ID_OC_SFU,ID_OC_MEM,OC_EX_SP,OC_EX_SFU,OC_EX_MEM,EX_WB
-gpgpu_num_sp_units                     2 # Number of SP units (default=1)
-gpgpu_num_sfu_units                    1 # Number of SF units (default=1)
-gpgpu_num_mem_units                    1 # Number if ldst units (default=1) WARNING: not hooked up to anything
-gpgpu_scheduler                      lrr # Scheduler configuration: < lrr | gto | two_level_active > If two_level_active:<num_active_warps>:<inner_prioritization>:<outer_prioritization>For complete list of prioritization values see shader.h enum scheduler_prioritization_typeDefault: gto
-gpgpu_dram_scheduler                    1 # 0 = fifo, 1 = FR-FCFS (defaul)
-gpgpu_dram_partition_queues              8:8:8:8 # i2$:$2d:d2$:$2i
-l2_ideal                               0 # Use a ideal L2 cache that always hit
-gpgpu_cache:dl2     64:128:8,L:B:m:W:L,A:32:4,4:0,32 # unified banked L2 data cache config  {<nsets>:<bsize>:<assoc>,<rep>:<wr>:<alloc>:<wr_alloc>,<mshr>:<N>:<merge>,<mq>}
-gpgpu_cache:dl2_texture_only                    0 # L2 cache used for texture only
-gpgpu_n_mem                            6 # number of memory modules (e.g. memory controllers) in gpu
-gpgpu_n_sub_partition_per_mchannel                    2 # number of memory subpartition in each memory module
-gpgpu_n_mem_per_ctrlr                    2 # number of memory chips per memory controller
-gpgpu_memlatency_stat                   14 # track and display latency statistics 0x2 enables MC, 0x4 enables queue logs
-gpgpu_frfcfs_dram_sched_queue_size                   16 # 0 = unlimited (default); # entries per chip
-gpgpu_dram_return_queue_size                  116 # 0 = unlimited (default); # entries per chip
-gpgpu_dram_buswidth                    4 # default = 4 bytes (8 bytes per cycle at DDR)
-gpgpu_dram_burst_length                    8 # Burst length of each DRAM request (default = 4 data bus cycle)
-dram_data_command_freq_ratio                    4 # Frequency ratio between DRAM data bus and command bus (default = 2 times, i.e. DDR)
-gpgpu_dram_timing_opt nbk=16:CCD=2:RRD=6:RCD=12:RAS=28:RP=12:RC=40: CL=12:WL=4:CDLR=5:WR=12:nbkgrp=4:CCDL=3:RTPL=2 # DRAM timing parameters = {nbk:tCCD:tRRD:tRCD:tRAS:tRP:tRC:CL:WL:tCDLR:tWR:nbkgrp:tCCDL:tRTPL}
-rop_latency                          120 # ROP queue latency (default 85)
-dram_latency                         100 # DRAM latency (default 30)
-gpgpu_mem_addr_mapping dramid@8;00000000.00000000.00000000.00000000.0000RRRR.RRRRRRRR.BBBCCCCB.CCSSSSSS # mapping memory address to dram model {dramid@<start bit>;<memory address map>}
-gpgpu_mem_addr_test                    0 # run sweep test to check address mapping for aliased address
-gpgpu_mem_address_mask                    1 # 0 = old addressing mask, 1 = new addressing mask, 2 = new add. mask + flipped bank sel and chip sel bits
-gpuwattch_xml_file  gpuwattch_gtx480.xml # GPUWattch XML file
-power_simulation_enabled                    0 # Turn on power simulator (1=On, 0=Off)
-power_per_cycle_dump                    0 # Dump detailed power output each cycle
-power_trace_enabled                    0 # produce a file for the power trace (1=On, 0=Off)
-power_trace_zlevel                     6 # Compression level of the power trace output log (0=no comp, 9=highest)
-steady_power_levels_enabled                    0 # produce a file for the steady power levels (1=On, 0=Off)
-steady_state_definition                  8:4 # allowed deviation:number of samples
-gpgpu_max_cycle                        0 # terminates gpu simulation early (0 = no limit)
-gpgpu_max_insn                         0 # terminates gpu simulation early (0 = no limit)
-gpgpu_max_cta                          0 # terminates gpu simulation early (0 = no limit)
-gpgpu_runtime_stat             500000000 # display runtime statistics such as dram utilization {<freq>:<flag>}
-liveness_message_freq                    1 # Minimum number of seconds between simulation liveness messages (0 = always print)
-gpgpu_flush_l1_cache                    0 # Flush L1 cache at the end of each kernel call
-gpgpu_flush_l2_cache                    0 # Flush L2 cache at the end of each kernel call
-gpgpu_deadlock_detect                    1 # Stop the simulation at deadlock (1=on (default), 0=off)
-gpgpu_ptx_instruction_classification                    0 # if enabled will classify ptx instruction types per kernel (Max 255 kernels now)
-gpgpu_ptx_sim_mode                     0 # Select between Performance (default) or Functional simulation (1)
-gpgpu_clock_domains 730.0:730.0:730.0:950.0 # Clock Domain Frequencies in MhZ {<Core Clock>:<ICNT Clock>:<L2 Clock>:<DRAM Clock>}
-gpgpu_max_concurrent_kernel                    8 # maximum kernels that can run concurrently on GPU
-gpgpu_cflog_interval                    0 # Interval between each snapshot in control flow logger
-visualizer_enabled                     0 # Turn on visualizer output (1=On, 0=Off)
-visualizer_outputfile                 NULL # Specifies the output log file for visualizer
-visualizer_zlevel                      6 # Compression level of the visualizer output log (0=no comp, 9=highest)
-trace_enabled                          0 # Turn on traces
-trace_components                    none # comma seperated list of traces to enable. Complete list found in trace_streams.tup. Default none
-trace_sampling_core                    0 # The core which is printed using CORE_DPRINTF. Default 0
-trace_sampling_memory_partition                   -1 # The memory partition which is printed using MEMPART_DPRINTF. Default -1 (i.e. all)
-enable_ptx_file_line_stats                    0 # Turn on PTX source line statistic profiling. (1 = On)
-ptx_line_stats_filename gpgpu_inst_stats.txt # Output file for PTX source line statistics.
-save_embedded_ptx                      0 # saves ptx files embedded in binary as <n>.ptx
-keep                                   0 # keep intermediate files created by GPGPU-Sim when interfacing with external programs
-gpgpu_ptx_save_converted_ptxplus                    0 # Saved converted ptxplus to a file
-ptx_opcode_latency_int         4,13,4,5,145 # Opcode latencies for integers <ADD,MAX,MUL,MAD,DIV>Default 1,1,19,25,145
-ptx_opcode_latency_fp          4,13,4,5,39 # Opcode latencies for single precision floating points <ADD,MAX,MUL,MAD,DIV>Default 1,1,1,1,30
-ptx_opcode_latency_dp         8,19,8,8,330 # Opcode latencies for double precision floating points <ADD,MAX,MUL,MAD,DIV>Default 8,8,8,8,335
-ptx_opcode_initiation_int            1,2,2,1,8 # Opcode initiation intervals for integers <ADD,MAX,MUL,MAD,DIV>Default 1,1,4,4,32
-ptx_opcode_initiation_fp            1,2,1,1,4 # Opcode initiation intervals for single precision floating points <ADD,MAX,MUL,MAD,DIV>Default 1,1,1,1,5
-ptx_opcode_initiation_dp         8,16,8,8,130 # Opcode initiation intervals for double precision floating points <ADD,MAX,MUL,MAD,DIV>Default 8,8,8,8,130
DRAM Timing Options:
nbk                                    16 # number of banks
CCD                                     2 # column to column delay
RRD                                     6 # minimal delay between activation of rows in different banks
RCD                                    12 # row to column delay
RAS                                    28 # time needed to activate row
RP                                     12 # time needed to precharge (deactivate) row
RC                                     40 # row cycle time
CDLR                                    5 # switching from write to read (changes tWTR)
WR                                     12 # last data-in to row precharge
CL                                     12 # CAS latency
WL                                      4 # Write latency
nbkgrp                                  4 # number of bank groups
CCDL                                    3 # column to column delay between accesses to different bank groups
RTPL                                    2 # read to precharge delay between accesses to different bank groups
Total number of memory sub partition = 12
addr_dec_mask[CHIP]  = 0000000000000000 	high:64 low:0
addr_dec_mask[BK]    = 000000000000e100 	high:16 low:8
addr_dec_mask[ROW]   = 000000000fff0000 	high:28 low:16
addr_dec_mask[COL]   = 0000000000001eff 	high:13 low:0
addr_dec_mask[BURST] = 000000000000003f 	high:6 low:0
sub_partition_id_mask = 0000000000000100
GPGPU-Sim uArch: clock freqs: 730000000.000000:730000000.000000:730000000.000000:950000000.000000
GPGPU-Sim uArch: clock periods: 0.00000000136986301370:0.00000000136986301370:0.00000000136986301370:0.00000000105263157895
*** Initializing Memory Statistics ***
GPGPU-Sim uArch: interconnect node map (shaderID+MemID to icntID)
GPGPU-Sim uArch: Memory nodes ID start from index: 15
GPGPU-Sim uArch:    0   1   2   3   4
GPGPU-Sim uArch:    5   6   7   8   9
GPGPU-Sim uArch:   10  11  12  13  14
GPGPU-Sim uArch:   15  16  17  18  19
GPGPU-Sim uArch:   20  21  22  23  24
GPGPU-Sim uArch:   25  26
GPGPU-Sim uArch: interconnect node reverse map (icntID to shaderID+MemID)
GPGPU-Sim uArch: Memory nodes start from ID: 15
GPGPU-Sim uArch:    0   1   2   3   4
GPGPU-Sim uArch:    5   6   7   8   9
GPGPU-Sim uArch:   10  11  12  13  14
GPGPU-Sim uArch:   15  16  17  18  19
GPGPU-Sim uArch:   20  21  22  23  24
GPGPU-Sim uArch:   25  26
7de05c5b5f289dc1faef774b366fc346  /home/z/Workspace/model_gpu_cache/build/histo_sim
GPGPU-Sim uArch: performance model initialization complete.
GPGPU-Sim PTX: __cudaRegisterFatBinary, fat_cubin_handle = 1, filename=main.cu
self exe links to: /home/z/Workspace/model_gpu_cache/build/histo_sim
Running md5sum using "md5sum /home/z/Workspace/model_gpu_cache/build/histo_sim "
Running cuobjdump using "$CUDA_INSTALL_PATH/bin/cuobjdump -ptx -elf -sass /home/z/Workspace/model_gpu_cache/build/histo_sim > _cuobjdump_complete_output_Z7XfZ4"
Parsing file _cuobjdump_complete_output_Z7XfZ4
######### cuobjdump parser ########
## Adding new section ELF
Adding arch: sm_20
Adding identifier: main.cu
## Adding new section PTX
Adding ptx filename: _cuobjdump_1.ptx
Adding arch: sm_20
Adding identifier: main.cu
## Adding new section ELF
Adding arch: sm_20
Adding identifier: histo_final.cu
## Adding new section PTX
Adding ptx filename: _cuobjdump_2.ptx
Adding arch: sm_20
Adding identifier: histo_final.cu
## Adding new section ELF
Adding arch: sm_20
Adding identifier: histo_intermediates.cu
## Adding new section PTX
Adding ptx filename: _cuobjdump_3.ptx
Adding arch: sm_20
Adding identifier: histo_intermediates.cu
## Adding new section ELF
Adding arch: sm_20
Adding identifier: histo_main.cu
## Adding new section PTX
Adding ptx filename: _cuobjdump_4.ptx
Adding arch: sm_20
Adding identifier: histo_main.cu
## Adding new section ELF
Adding arch: sm_20
Adding identifier: histo_prescan.cu
## Adding new section PTX
Adding ptx filename: _cuobjdump_5.ptx
Adding arch: sm_20
Adding identifier: histo_prescan.cu
## Adding new section ELF
Adding arch: sm_20
Adding identifier: util.cu
## Adding new section PTX
Adding ptx filename: _cuobjdump_6.ptx
Adding arch: sm_20
Adding identifier: util.cu
Done parsing!!!
GPGPU-Sim PTX: __cudaRegisterFatBinary, fat_cubin_handle = 2, filename=histo_final.cu
GPGPU-Sim PTX: __cudaRegisterFunction _Z18histo_final_kerneljjjjPjS_S_S_ : hostFun 0x0x403b80, fat_cubin_handle = 2
GPGPU-Sim PTX: instruction assembly for function '_Z18histo_final_kerneljjjjPjS_S_S_'...   done.
GPGPU-Sim PTX: finding reconvergence points for '_Z18histo_final_kerneljjjjPjS_S_S_'...
GPGPU-Sim PTX: Finding dominators for '_Z18histo_final_kerneljjjjPjS_S_S_'...
GPGPU-Sim PTX: Finding immediate dominators for '_Z18histo_final_kerneljjjjPjS_S_S_'...
GPGPU-Sim PTX: Finding postdominators for '_Z18histo_final_kerneljjjjPjS_S_S_'...
GPGPU-Sim PTX: Finding immediate postdominators for '_Z18histo_final_kerneljjjjPjS_S_S_'...
GPGPU-Sim PTX: pre-decoding instructions for '_Z18histo_final_kerneljjjjPjS_S_S_'...
GPGPU-Sim PTX: reconvergence points for _Z18histo_final_kerneljjjjPjS_S_S_...
GPGPU-Sim PTX:  1 (potential) branch divergence @  PC=0x050 (_2.ptx:77) @%p1 bra $Lt_0_4354;
GPGPU-Sim PTX:    immediate post dominator      @  PC=0x158 (_2.ptx:116) add.u32 %r28, %r9, %r5;
GPGPU-Sim PTX:  2 (potential) branch divergence @  PC=0x150 (_2.ptx:113) @%p2 bra $Lt_0_4866;
GPGPU-Sim PTX:    immediate post dominator      @  PC=0x158 (_2.ptx:116) add.u32 %r28, %r9, %r5;
GPGPU-Sim PTX:  3 (potential) branch divergence @  PC=0x1a0 (_2.ptx:125) @%p3 bra $Lt_0_7682;
GPGPU-Sim PTX:    immediate post dominator      @  PC=0xa80 (_2.ptx:486) add.u32 %r247, %r33, %r5;
GPGPU-Sim PTX:  4 (potential) branch divergence @  PC=0xa60 (_2.ptx:479) @%p4 bra $Lt_0_5890;
GPGPU-Sim PTX:    immediate post dominator      @  PC=0xa68 (_2.ptx:480) bra.uni $Lt_0_5378;
GPGPU-Sim PTX:  5 (potential) branch divergence @  PC=0xa68 (_2.ptx:480) bra.uni $Lt_0_5378;
GPGPU-Sim PTX:    immediate post dominator      @  PC=0xa80 (_2.ptx:486) add.u32 %r247, %r33, %r5;
GPGPU-Sim PTX:  6 (potential) branch divergence @  PC=0xa98 (_2.ptx:489) @%p5 bra $Lt_0_6402;
GPGPU-Sim PTX:    immediate post dominator      @  PC=0xba0 (_2.ptx:528) exit;
GPGPU-Sim PTX:  7 (potential) branch divergence @  PC=0xb98 (_2.ptx:525) @%p6 bra $Lt_0_6914;
GPGPU-Sim PTX:    immediate post dominator      @  PC=0xba0 (_2.ptx:528) exit;
GPGPU-Sim PTX: ... end of reconvergence points for _Z18histo_final_kerneljjjjPjS_S_S_
GPGPU-Sim PTX: ... done pre-decoding instructions for '_Z18histo_final_kerneljjjjPjS_S_S_'.
GPGPU-Sim PTX: finished parsing EMBEDDED .ptx file _2.ptx
Adding _cuobjdump_2.ptx with cubin handle 2
GPGPU-Sim PTX: extracting embedded .ptx to temporary file "_ptx_kn9g18"
Running: cat _ptx_kn9g18 | sed 's/.version 1.5/.version 1.4/' | sed 's/, texmode_independent//' | sed 's/\(\.extern \.const\[1\] .b8 \w\+\)\[\]/\1\[1\]/' | sed 's/const\[.\]/const\[0\]/g' > _ptx2_hIOj3c
GPGPU-Sim PTX: generating ptxinfo using "$CUDA_INSTALL_PATH/bin/ptxas --gpu-name=sm_20 -v _ptx2_hIOj3c --output-file  /dev/null 2> _ptx_kn9g18info"
GPGPU-Sim PTX: Kernel '_Z18histo_final_kerneljjjjPjS_S_S_' : regs=41, lmem=0, smem=0, cmem=80
GPGPU-Sim PTX: removing ptxinfo using "rm -f _ptx_kn9g18 _ptx2_hIOj3c _ptx_kn9g18info"
GPGPU-Sim PTX: loading globals with explicit initializers... 
GPGPU-Sim PTX: finished loading globals (0 bytes total).
GPGPU-Sim PTX: loading constants with explicit initializers...  done.
GPGPU-Sim PTX: __cudaRegisterFatBinary, fat_cubin_handle = 3, filename=histo_intermediates.cu
GPGPU-Sim PTX: __cudaRegisterFunction _Z26histo_intermediates_kernelP5uint2jjjP6uchar4 : hostFun 0x0x403cc0, fat_cubin_handle = 3
GPGPU-Sim PTX: allocating stack frame region for .param "__cudaparmf1__Z12calculateBinjP6uchar4" from 0x0 to 0x4
GPGPU-Sim PTX: allocating stack frame region for .param "__cudaparmf2__Z12calculateBinjP6uchar4" from 0x4 to 0xc
GPGPU-Sim PTX: instruction assembly for function '_Z12calculateBinjP6uchar4'...   done.
GPGPU-Sim PTX: finding reconvergence points for '_Z12calculateBinjP6uchar4'...
GPGPU-Sim PTX: Finding dominators for '_Z12calculateBinjP6uchar4'...
GPGPU-Sim PTX: Finding immediate dominators for '_Z12calculateBinjP6uchar4'...
GPGPU-Sim PTX: Finding postdominators for '_Z12calculateBinjP6uchar4'...
GPGPU-Sim PTX: Finding immediate postdominators for '_Z12calculateBinjP6uchar4'...
GPGPU-Sim PTX: pre-decoding instructions for '_Z12calculateBinjP6uchar4'...
GPGPU-Sim PTX: reconvergence points for _Z12calculateBinjP6uchar4...
GPGPU-Sim PTX: ... end of reconvergence points for _Z12calculateBinjP6uchar4
GPGPU-Sim PTX: ... done pre-decoding instructions for '_Z12calculateBinjP6uchar4'.
GPGPU-Sim PTX: instruction assembly for function '_Z26histo_intermediates_kernelP5uint2jjjP6uchar4'...   done.
GPGPU-Sim PTX: finding reconvergence points for '_Z26histo_intermediates_kernelP5uint2jjjP6uchar4'...
GPGPU-Sim PTX: Finding dominators for '_Z26histo_intermediates_kernelP5uint2jjjP6uchar4'...
GPGPU-Sim PTX: Finding immediate dominators for '_Z26histo_intermediates_kernelP5uint2jjjP6uchar4'...
GPGPU-Sim PTX: Finding postdominators for '_Z26histo_intermediates_kernelP5uint2jjjP6uchar4'...
GPGPU-Sim PTX: Finding immediate postdominators for '_Z26histo_intermediates_kernelP5uint2jjjP6uchar4'...
GPGPU-Sim PTX: pre-decoding instructions for '_Z26histo_intermediates_kernelP5uint2jjjP6uchar4'...
GPGPU-Sim PTX: reconvergence points for _Z26histo_intermediates_kernelP5uint2jjjP6uchar4...
GPGPU-Sim PTX:  1 (potential) branch divergence @  PC=0xda8 (_3.ptx:143) @!%p3 bra $Lt_1_2818;
GPGPU-Sim PTX:    immediate post dominator      @  PC=0xe40 (_3.ptx:165) cvt.u64.u32 %rd14, %r1;
GPGPU-Sim PTX:  2 (potential) branch divergence @  PC=0xef0 (_3.ptx:189) @!%p3 bra $Lt_1_3330;
GPGPU-Sim PTX:    immediate post dominator      @  PC=0xf88 (_3.ptx:211) add.u64 %rd23, %rd15, %rd16;
GPGPU-Sim PTX:  3 (potential) branch divergence @  PC=0x1028 (_3.ptx:233) @!%p3 bra $Lt_1_3842;
GPGPU-Sim PTX:    immediate post dominator      @  PC=0x10c0 (_3.ptx:255) add.u64 %rd30, %rd15, %rd23;
GPGPU-Sim PTX:  4 (potential) branch divergence @  PC=0x1160 (_3.ptx:277) @!%p3 bra $Lt_1_4354;
GPGPU-Sim PTX:    immediate post dominator      @  PC=0x11f8 (_3.ptx:299) add.u64 %rd37, %rd15, %rd30;
GPGPU-Sim PTX:  5 (potential) branch divergence @  PC=0x1298 (_3.ptx:321) @!%p3 bra $Lt_1_4866;
GPGPU-Sim PTX:    immediate post dominator      @  PC=0x1330 (_3.ptx:343) add.u64 %rd44, %rd15, %rd37;
GPGPU-Sim PTX:  6 (potential) branch divergence @  PC=0x13d0 (_3.ptx:365) @!%p3 bra $Lt_1_5378;
GPGPU-Sim PTX:    immediate post dominator      @  PC=0x1468 (_3.ptx:388) add.u64 %rd51, %rd15, %rd44;
GPGPU-Sim PTX:  7 (potential) branch divergence @  PC=0x1508 (_3.ptx:411) @!%p3 bra $Lt_1_5890;
GPGPU-Sim PTX:    immediate post dominator      @  PC=0x15a0 (_3.ptx:434) add.u64 %rd51, %rd15, %rd51;
GPGPU-Sim PTX:  8 (potential) branch divergence @  PC=0x1640 (_3.ptx:457) @!%p3 bra $Lt_1_6402;
GPGPU-Sim PTX:    immediate post dominator      @  PC=0x16d8 (_3.ptx:480) add.u64 %rd51, %rd15, %rd51;
GPGPU-Sim PTX:  9 (potential) branch divergence @  PC=0x1778 (_3.ptx:503) @!%p3 bra $Lt_1_6914;
GPGPU-Sim PTX:    immediate post dominator      @  PC=0x1810 (_3.ptx:526) add.u64 %rd51, %rd15, %rd51;
GPGPU-Sim PTX: 10 (potential) branch divergence @  PC=0x18b0 (_3.ptx:549) @!%p3 bra $Lt_1_7426;
GPGPU-Sim PTX:    immediate post dominator      @  PC=0x1948 (_3.ptx:571) add.u64 %rd51, %rd15, %rd51;
GPGPU-Sim PTX: 11 (potential) branch divergence @  PC=0x19e8 (_3.ptx:594) @!%p3 bra $Lt_1_7938;
GPGPU-Sim PTX:    immediate post dominator      @  PC=0x1a80 (_3.ptx:616) add.u64 %rd51, %rd15, %rd51;
GPGPU-Sim PTX: 12 (potential) branch divergence @  PC=0x1b20 (_3.ptx:639) @!%p3 bra $Lt_1_8450;
GPGPU-Sim PTX:    immediate post dominator      @  PC=0x1bb8 (_3.ptx:661) add.u64 %rd51, %rd15, %rd51;
GPGPU-Sim PTX: 13 (potential) branch divergence @  PC=0x1c58 (_3.ptx:684) @!%p3 bra $Lt_1_8962;
GPGPU-Sim PTX:    immediate post dominator      @  PC=0x1cf0 (_3.ptx:706) add.u64 %rd51, %rd15, %rd51;
GPGPU-Sim PTX: 14 (potential) branch divergence @  PC=0x1d90 (_3.ptx:729) @!%p3 bra $Lt_1_9474;
GPGPU-Sim PTX:    immediate post dominator      @  PC=0x1e28 (_3.ptx:751) add.u64 %rd51, %rd15, %rd51;
GPGPU-Sim PTX: 15 (potential) branch divergence @  PC=0x1ec8 (_3.ptx:774) @!%p3 bra $Lt_1_9986;
GPGPU-Sim PTX:    immediate post dominator      @  PC=0x1f60 (_3.ptx:796) add.u64 %rd51, %rd15, %rd51;
GPGPU-Sim PTX: 16 (potential) branch divergence @  PC=0x2000 (_3.ptx:819) @!%p3 bra $Lt_1_10498;
GPGPU-Sim PTX:    immediate post dominator      @  PC=0x2098 (_3.ptx:841) exit;
GPGPU-Sim PTX: ... end of reconvergence points for _Z26histo_intermediates_kernelP5uint2jjjP6uchar4
GPGPU-Sim PTX: ... done pre-decoding instructions for '_Z26histo_intermediates_kernelP5uint2jjjP6uchar4'.
GPGPU-Sim PTX: finished parsing EMBEDDED .ptx file _3.ptx
Adding _cuobjdump_3.ptx with cubin handle 3
GPGPU-Sim PTX: extracting embedded .ptx to temporary file "_ptx_MbwJch"
Running: cat _ptx_MbwJch | sed 's/.version 1.5/.version 1.4/' | sed 's/, texmode_independent//' | sed 's/\(\.extern \.const\[1\] .b8 \w\+\)\[\]/\1\[1\]/' | sed 's/const\[.\]/const\[0\]/g' > _ptx2_t3Faml
GPGPU-Sim PTX: generating ptxinfo using "$CUDA_INSTALL_PATH/bin/ptxas --gpu-name=sm_20 -v _ptx2_t3Faml --output-file  /dev/null 2> _ptx_MbwJchinfo"
GPGPU-Sim PTX: Kernel '_Z26histo_intermediates_kernelP5uint2jjjP6uchar4' : regs=13, lmem=0, smem=0, cmem=68
GPGPU-Sim PTX: removing ptxinfo using "rm -f _ptx_MbwJch _ptx2_t3Faml _ptx_MbwJchinfo"
GPGPU-Sim PTX: loading globals with explicit initializers... 
GPGPU-Sim PTX: finished loading globals (0 bytes total).
GPGPU-Sim PTX: loading constants with explicit initializers...  done.
GPGPU-Sim PTX: __cudaRegisterFatBinary, fat_cubin_handle = 4, filename=histo_main.cu
GPGPU-Sim PTX: __cudaRegisterFunction _Z17histo_main_kernelP6uchar4jjjjjPjS1_S1_ : hostFun 0x0x403ea0, fat_cubin_handle = 4
GPGPU-Sim PTX: allocating stack frame region for .param "__cudaparmf1__Z19testIncrementGlobalPjjj6uchar4" from 0x0 to 0x8
GPGPU-Sim PTX: allocating stack frame region for .param "__cudaparmf2__Z19testIncrementGlobalPjjj6uchar4" from 0x8 to 0xc
GPGPU-Sim PTX: allocating stack frame region for .param "__cudaparmf3__Z19testIncrementGlobalPjjj6uchar4" from 0xc to 0x10
GPGPU-Sim PTX: allocating stack frame region for .param "__cudaparmf4__Z19testIncrementGlobalPjjj6uchar4" from 0x10 to 0x14
GPGPU-Sim PTX: allocating stack frame region for .param "__cudaparmf1__Z18testIncrementLocalPjPA256_jj6uchar4" from 0x0 to 0x8
GPGPU-Sim PTX: allocating stack frame region for .param "__cudaparmf2__Z18testIncrementLocalPjPA256_jj6uchar4" from 0x8 to 0x10
GPGPU-Sim PTX: allocating stack frame region for .param "__cudaparmf3__Z18testIncrementLocalPjPA256_jj6uchar4" from 0x10 to 0x14
GPGPU-Sim PTX: allocating stack frame region for .param "__cudaparmf4__Z18testIncrementLocalPjPA256_jj6uchar4" from 0x14 to 0x18
GPGPU-Sim PTX: allocating stack frame region for .param "__cudaparmf1__Z11clearMemoryPA256_j" from 0x0 to 0x8
GPGPU-Sim PTX: allocating stack frame region for .param "__cudaparmf1__Z10copyMemoryPjPA256_j" from 0x0 to 0x8
GPGPU-Sim PTX: allocating stack frame region for .param "__cudaparmf2__Z10copyMemoryPjPA256_j" from 0x8 to 0x10
GPGPU-Sim PTX: instruction assembly for function '_Z19testIncrementGlobalPjjj6uchar4'...   done.
GPGPU-Sim PTX: finding reconvergence points for '_Z19testIncrementGlobalPjjj6uchar4'...
GPGPU-Sim PTX: Finding dominators for '_Z19testIncrementGlobalPjjj6uchar4'...
GPGPU-Sim PTX: Finding immediate dominators for '_Z19testIncrementGlobalPjjj6uchar4'...
GPGPU-Sim PTX: Finding postdominators for '_Z19testIncrementGlobalPjjj6uchar4'...
GPGPU-Sim PTX: Finding immediate postdominators for '_Z19testIncrementGlobalPjjj6uchar4'...
GPGPU-Sim PTX: pre-decoding instructions for '_Z19testIncrementGlobalPjjj6uchar4'...
GPGPU-Sim PTX: reconvergence points for _Z19testIncrementGlobalPjjj6uchar4...
GPGPU-Sim PTX:  1 (potential) branch divergence @  PC=0x2150 (_4.ptx:89) @%p1 bra $Lt_0_2818;
GPGPU-Sim PTX:    immediate post dominator      @  PC=0x2248 (_4.ptx:124) ret;
GPGPU-Sim PTX:  2 (potential) branch divergence @  PC=0x2220 (_4.ptx:115) @%p3 bra $Lt_0_3330;
GPGPU-Sim PTX:    immediate post dominator      @  PC=0x2248 (_4.ptx:124) ret;
GPGPU-Sim PTX: ... end of reconvergence points for _Z19testIncrementGlobalPjjj6uchar4
GPGPU-Sim PTX: ... done pre-decoding instructions for '_Z19testIncrementGlobalPjjj6uchar4'.
GPGPU-Sim PTX: instruction assembly for function '_Z18testIncrementLocalPjPA256_jj6uchar4'...   done.
GPGPU-Sim PTX: finding reconvergence points for '_Z18testIncrementLocalPjPA256_jj6uchar4'...
GPGPU-Sim PTX: Finding dominators for '_Z18testIncrementLocalPjPA256_jj6uchar4'...
GPGPU-Sim PTX: Finding immediate dominators for '_Z18testIncrementLocalPjPA256_jj6uchar4'...
GPGPU-Sim PTX: Finding postdominators for '_Z18testIncrementLocalPjPA256_jj6uchar4'...
GPGPU-Sim PTX: Finding immediate postdominators for '_Z18testIncrementLocalPjPA256_jj6uchar4'...
GPGPU-Sim PTX: pre-decoding instructions for '_Z18testIncrementLocalPjPA256_jj6uchar4'...
GPGPU-Sim PTX: reconvergence points for _Z18testIncrementLocalPjPA256_jj6uchar4...
GPGPU-Sim PTX:  1 (potential) branch divergence @  PC=0x22d0 (_4.ptx:155) @%p1 bra $Lt_1_11778;
GPGPU-Sim PTX:    immediate post dominator      @  PC=0x2668 (_4.ptx:290) ret;
GPGPU-Sim PTX:  2 (potential) branch divergence @  PC=0x2358 (_4.ptx:173) @!%p2 bra $Lt_1_12290;
GPGPU-Sim PTX:    immediate post dominator      @  PC=0x2668 (_4.ptx:290) ret;
GPGPU-Sim PTX:  3 (potential) branch divergence @  PC=0x2398 (_4.ptx:181) @%p3 bra $Lt_1_13058;
GPGPU-Sim PTX:    immediate post dominator      @  PC=0x23b8 (_4.ptx:187) add.s32 %r24, %r8, 8;
GPGPU-Sim PTX:  4 (potential) branch divergence @  PC=0x23a8 (_4.ptx:183) bra.uni $Lt_1_12802;
GPGPU-Sim PTX:    immediate post dominator      @  PC=0x23b8 (_4.ptx:187) add.s32 %r24, %r8, 8;
GPGPU-Sim PTX:  5 (potential) branch divergence @  PC=0x2418 (_4.ptx:199) @%p4 bra $Lt_1_13570;
GPGPU-Sim PTX:    immediate post dominator      @  PC=0x2438 (_4.ptx:205) add.s32 %r36, %r8, 16;
GPGPU-Sim PTX:  6 (potential) branch divergence @  PC=0x2428 (_4.ptx:201) bra.uni $Lt_1_13314;
GPGPU-Sim PTX:    immediate post dominator      @  PC=0x2438 (_4.ptx:205) add.s32 %r36, %r8, 16;
GPGPU-Sim PTX:  7 (potential) branch divergence @  PC=0x2498 (_4.ptx:217) @%p5 bra $Lt_1_14082;
GPGPU-Sim PTX:    immediate post dominator      @  PC=0x24b8 (_4.ptx:223) mov.s32 %r48, 0;
GPGPU-Sim PTX:  8 (potential) branch divergence @  PC=0x24a8 (_4.ptx:219) bra.uni $Lt_1_13826;
GPGPU-Sim PTX:    immediate post dominator      @  PC=0x24b8 (_4.ptx:223) mov.s32 %r48, 0;
GPGPU-Sim PTX:  9 (potential) branch divergence @  PC=0x24c8 (_4.ptx:225) @!%p6 bra $Lt_1_14338;
GPGPU-Sim PTX:    immediate post dominator      @  PC=0x2500 (_4.ptx:234) mov.s32 %r54, 0;
GPGPU-Sim PTX: 10 (potential) branch divergence @  PC=0x2510 (_4.ptx:236) @!%p8 bra $Lt_1_14850;
GPGPU-Sim PTX:    immediate post dominator      @  PC=0x2548 (_4.ptx:245) mov.s32 %r60, 0;
GPGPU-Sim PTX: 11 (potential) branch divergence @  PC=0x2558 (_4.ptx:247) @!%p10 bra $Lt_1_15362;
GPGPU-Sim PTX:    immediate post dominator      @  PC=0x25a8 (_4.ptx:260) shr.u32 %r69, %r8, 3;
GPGPU-Sim PTX: 12 (potential) branch divergence @  PC=0x2608 (_4.ptx:272) @!%p6 bra $Lt_1_15874;
GPGPU-Sim PTX:    immediate post dominator      @  PC=0x2628 (_4.ptx:277) @!%p8 bra $Lt_1_16386;
GPGPU-Sim PTX: 13 (potential) branch divergence @  PC=0x2628 (_4.ptx:277) @!%p8 bra $Lt_1_16386;
GPGPU-Sim PTX:    immediate post dominator      @  PC=0x2648 (_4.ptx:282) @!%p10 bra $Lt_1_16898;
GPGPU-Sim PTX: 14 (potential) branch divergence @  PC=0x2648 (_4.ptx:282) @!%p10 bra $Lt_1_16898;
GPGPU-Sim PTX:    immediate post dominator      @  PC=0x2668 (_4.ptx:290) ret;
GPGPU-Sim PTX: ... end of reconvergence points for _Z18testIncrementLocalPjPA256_jj6uchar4
GPGPU-Sim PTX: ... done pre-decoding instructions for '_Z18testIncrementLocalPjPA256_jj6uchar4'.
GPGPU-Sim PTX: instruction assembly for function '_Z11clearMemoryPA256_j'...   done.
GPGPU-Sim PTX: finding reconvergence points for '_Z11clearMemoryPA256_j'...
GPGPU-Sim PTX: Finding dominators for '_Z11clearMemoryPA256_j'...
GPGPU-Sim PTX: Finding immediate dominators for '_Z11clearMemoryPA256_j'...
GPGPU-Sim PTX: Finding postdominators for '_Z11clearMemoryPA256_j'...
GPGPU-Sim PTX: Finding immediate postdominators for '_Z11clearMemoryPA256_j'...
GPGPU-Sim PTX: pre-decoding instructions for '_Z11clearMemoryPA256_j'...
GPGPU-Sim PTX: reconvergence points for _Z11clearMemoryPA256_j...
GPGPU-Sim PTX:  1 (potential) branch divergence @  PC=0x26a0 (_4.ptx:308) @%p1 bra $Lt_2_1282;
GPGPU-Sim PTX:    immediate post dominator      @  PC=0x2710 (_4.ptx:327) ret;
GPGPU-Sim PTX:  2 (potential) branch divergence @  PC=0x2708 (_4.ptx:324) @%p2 bra $Lt_2_1794;
GPGPU-Sim PTX:    immediate post dominator      @  PC=0x2710 (_4.ptx:327) ret;
GPGPU-Sim PTX: ... end of reconvergence points for _Z11clearMemoryPA256_j
GPGPU-Sim PTX: ... done pre-decoding instructions for '_Z11clearMemoryPA256_j'.
GPGPU-Sim PTX: instruction assembly for function '_Z10copyMemoryPjPA256_j'...   done.
GPGPU-Sim PTX: finding reconvergence points for '_Z10copyMemoryPjPA256_j'...
GPGPU-Sim PTX: Finding dominators for '_Z10copyMemoryPjPA256_j'...
GPGPU-Sim PTX: Finding immediate dominators for '_Z10copyMemoryPjPA256_j'...
GPGPU-Sim PTX: Finding postdominators for '_Z10copyMemoryPjPA256_j'...
GPGPU-Sim PTX: Finding immediate postdominators for '_Z10copyMemoryPjPA256_j'...
GPGPU-Sim PTX: pre-decoding instructions for '_Z10copyMemoryPjPA256_j'...
GPGPU-Sim PTX: reconvergence points for _Z10copyMemoryPjPA256_j...
GPGPU-Sim PTX:  1 (potential) branch divergence @  PC=0x2758 (_4.ptx:347) @%p1 bra $Lt_3_1282;
GPGPU-Sim PTX:    immediate post dominator      @  PC=0x27d8 (_4.ptx:368) ret;
GPGPU-Sim PTX:  2 (potential) branch divergence @  PC=0x27d0 (_4.ptx:365) @%p2 bra $Lt_3_1794;
GPGPU-Sim PTX:    immediate post dominator      @  PC=0x27d8 (_4.ptx:368) ret;
GPGPU-Sim PTX: ... end of reconvergence points for _Z10copyMemoryPjPA256_j
GPGPU-Sim PTX: ... done pre-decoding instructions for '_Z10copyMemoryPjPA256_j'.
GPGPU-Sim PTX: allocating shared region for "__cuda___cuda_local_var_40926_46_non_const_sub_histo56" from 0x0 to 0x6000 (shared memory space)
GPGPU-Sim PTX: instruction assembly for function '_Z17histo_main_kernelP6uchar4jjjjjPjS1_S1_'...   done.
GPGPU-Sim PTX: finding reconvergence points for '_Z17histo_main_kernelP6uchar4jjjjjPjS1_S1_'...
GPGPU-Sim PTX: Finding dominators for '_Z17histo_main_kernelP6uchar4jjjjjPjS1_S1_'...
GPGPU-Sim PTX: Finding immediate dominators for '_Z17histo_main_kernelP6uchar4jjjjjPjS1_S1_'...
GPGPU-Sim PTX: Finding postdominators for '_Z17histo_main_kernelP6uchar4jjjjjPjS1_S1_'...
GPGPU-Sim PTX: Finding immediate postdominators for '_Z17histo_main_kernelP6uchar4jjjjjPjS1_S1_'...
GPGPU-Sim PTX: pre-decoding instructions for '_Z17histo_main_kernelP6uchar4jjjjjPjS1_S1_'...
GPGPU-Sim PTX: reconvergence points for _Z17histo_main_kernelP6uchar4jjjjjPjS1_S1_...
GPGPU-Sim PTX:  1 (potential) branch divergence @  PC=0x2830 (_4.ptx:404) @!%p1 bra $Lt_4_30722;
GPGPU-Sim PTX:    immediate post dominator      @  PC=0x28a0 (_4.ptx:423) mov.u64 %rd1, __cuda___cuda_local_var_40926_46_non_const_sub_histo56;
GPGPU-Sim PTX:  2 (potential) branch divergence @  PC=0x2898 (_4.ptx:420) @%p2 bra $Lt_4_31234;
GPGPU-Sim PTX:    immediate post dominator      @  PC=0x28a0 (_4.ptx:423) mov.u64 %rd1, __cuda___cuda_local_var_40926_46_non_const_sub_histo56;
GPGPU-Sim PTX:  3 (potential) branch divergence @  PC=0x28d0 (_4.ptx:430) @%p3 bra $Lt_4_32002;
GPGPU-Sim PTX:    immediate post dominator      @  PC=0x3238 (_4.ptx:787) bar.sync 0;
GPGPU-Sim PTX:  4 (potential) branch divergence @  PC=0x28e0 (_4.ptx:432) @%p4 bra $Lt_4_39938;
GPGPU-Sim PTX:    immediate post dominator      @  PC=0x3238 (_4.ptx:787) bar.sync 0;
GPGPU-Sim PTX:  5 (potential) branch divergence @  PC=0x2960 (_4.ptx:452) @%p5 bra $Lt_4_38146;
GPGPU-Sim PTX:    immediate post dominator      @  PC=0x2ce8 (_4.ptx:585) set.gt.u32.u32 %r97, %r20, %r19;
GPGPU-Sim PTX:  6 (potential) branch divergence @  PC=0x29d0 (_4.ptx:467) @!%p6 bra $Lt_4_38146;
GPGPU-Sim PTX:    immediate post dominator      @  PC=0x2ce8 (_4.ptx:585) set.gt.u32.u32 %r97, %r20, %r19;
GPGPU-Sim PTX:  7 (potential) branch divergence @  PC=0x2a10 (_4.ptx:475) @%p7 bra $Lt_4_34306;
GPGPU-Sim PTX:    immediate post dominator      @  PC=0x2a30 (_4.ptx:481) add.s32 %r37, %r23, 8;
GPGPU-Sim PTX:  8 (potential) branch divergence @  PC=0x2a20 (_4.ptx:477) bra.uni $Lt_4_34050;
GPGPU-Sim PTX:    immediate post dominator      @  PC=0x2a30 (_4.ptx:481) add.s32 %r37, %r23, 8;
GPGPU-Sim PTX:  9 (potential) branch divergence @  PC=0x2a90 (_4.ptx:493) @%p8 bra $Lt_4_34818;
GPGPU-Sim PTX:    immediate post dominator      @  PC=0x2ab0 (_4.ptx:499) add.s32 %r49, %r23, 16;
GPGPU-Sim PTX: 10 (potential) branch divergence @  PC=0x2aa0 (_4.ptx:495) bra.uni $Lt_4_34562;
GPGPU-Sim PTX:    immediate post dominator      @  PC=0x2ab0 (_4.ptx:499) add.s32 %r49, %r23, 16;
GPGPU-Sim PTX: 11 (potential) branch divergence @  PC=0x2b10 (_4.ptx:511) @%p9 bra $Lt_4_35330;
GPGPU-Sim PTX:    immediate post dominator      @  PC=0x2b30 (_4.ptx:517) mov.s32 %r61, 0;
GPGPU-Sim PTX: 12 (potential) branch divergence @  PC=0x2b20 (_4.ptx:513) bra.uni $Lt_4_35074;
GPGPU-Sim PTX:    immediate post dominator      @  PC=0x2b30 (_4.ptx:517) mov.s32 %r61, 0;
GPGPU-Sim PTX: 13 (potential) branch divergence @  PC=0x2b40 (_4.ptx:519) @!%p10 bra $Lt_4_35586;
GPGPU-Sim PTX:    immediate post dominator      @  PC=0x2b78 (_4.ptx:528) mov.s32 %r67, 0;
GPGPU-Sim PTX: 14 (potential) branch divergence @  PC=0x2b88 (_4.ptx:530) @!%p12 bra $Lt_4_36098;
GPGPU-Sim PTX:    immediate post dominator      @  PC=0x2bc0 (_4.ptx:539) mov.s32 %r73, 0;
GPGPU-Sim PTX: 15 (potential) branch divergence @  PC=0x2bd0 (_4.ptx:541) @!%p14 bra $Lt_4_36610;
GPGPU-Sim PTX:    immediate post dominator      @  PC=0x2c20 (_4.ptx:554) shr.u32 %r82, %r23, 3;
GPGPU-Sim PTX: 16 (potential) branch divergence @  PC=0x2c88 (_4.ptx:567) @!%p10 bra $Lt_4_37122;
GPGPU-Sim PTX:    immediate post dominator      @  PC=0x2ca8 (_4.ptx:572) @!%p12 bra $Lt_4_37634;
GPGPU-Sim PTX: 17 (potential) branch divergence @  PC=0x2ca8 (_4.ptx:572) @!%p12 bra $Lt_4_37634;
GPGPU-Sim PTX:    immediate post dominator      @  PC=0x2cc8 (_4.ptx:577) @!%p14 bra $Lt_4_38146;
GPGPU-Sim PTX: 18 (potential) branch divergence @  PC=0x2cc8 (_4.ptx:577) @!%p14 bra $Lt_4_38146;
GPGPU-Sim PTX:    immediate post dominator      @  PC=0x2ce8 (_4.ptx:585) set.gt.u32.u32 %r97, %r20, %r19;
GPGPU-Sim PTX: 19 (potential) branch divergence @  PC=0x2d20 (_4.ptx:592) @%p16 bra $Lt_4_39170;
GPGPU-Sim PTX:    immediate post dominator      @  PC=0x2e08 (_4.ptx:625) setp.lt.u32 %p19, %r6, %r12;
GPGPU-Sim PTX: 20 (potential) branch divergence @  PC=0x2de0 (_4.ptx:616) @%p18 bra $Lt_4_39170;
GPGPU-Sim PTX:    immediate post dominator      @  PC=0x2e08 (_4.ptx:625) setp.lt.u32 %p19, %r6, %r12;
GPGPU-Sim PTX: 21 (potential) branch divergence @  PC=0x2e10 (_4.ptx:626) @%p19 bra $Lt_4_32770;
GPGPU-Sim PTX:    immediate post dominator      @  PC=0x2e18 (_4.ptx:627) bra.uni $Lt_4_39938;
GPGPU-Sim PTX: 22 (potential) branch divergence @  PC=0x2e18 (_4.ptx:627) bra.uni $Lt_4_39938;
GPGPU-Sim PTX:    immediate post dominator      @  PC=0x3238 (_4.ptx:787) bar.sync 0;
GPGPU-Sim PTX: 23 (potential) branch divergence @  PC=0x2e28 (_4.ptx:630) @%p20 bra $Lt_4_39938;
GPGPU-Sim PTX:    immediate post dominator      @  PC=0x3238 (_4.ptx:787) bar.sync 0;
GPGPU-Sim PTX: 24 (potential) branch divergence @  PC=0x2ea0 (_4.ptx:649) @%p21 bra $Lt_4_45826;
GPGPU-Sim PTX:    immediate post dominator      @  PC=0x3228 (_4.ptx:782) setp.lt.u32 %p32, %r6, %r12;
GPGPU-Sim PTX: 25 (potential) branch divergence @  PC=0x2f10 (_4.ptx:664) @!%p22 bra $Lt_4_45826;
GPGPU-Sim PTX:    immediate post dominator      @  PC=0x3228 (_4.ptx:782) setp.lt.u32 %p32, %r6, %r12;
GPGPU-Sim PTX: 26 (potential) branch divergence @  PC=0x2f50 (_4.ptx:672) @%p23 bra $Lt_4_41986;
GPGPU-Sim PTX:    immediate post dominator      @  PC=0x2f70 (_4.ptx:678) add.s32 %r143, %r130, 8;
GPGPU-Sim PTX: 27 (potential) branch divergence @  PC=0x2f60 (_4.ptx:674) bra.uni $Lt_4_41730;
GPGPU-Sim PTX:    immediate post dominator      @  PC=0x2f70 (_4.ptx:678) add.s32 %r143, %r130, 8;
GPGPU-Sim PTX: 28 (potential) branch divergence @  PC=0x2fd0 (_4.ptx:690) @%p24 bra $Lt_4_42498;
GPGPU-Sim PTX:    immediate post dominator      @  PC=0x2ff0 (_4.ptx:696) add.s32 %r154, %r130, 16;
GPGPU-Sim PTX: 29 (potential) branch divergence @  PC=0x2fe0 (_4.ptx:692) bra.uni $Lt_4_42242;
GPGPU-Sim PTX:    immediate post dominator      @  PC=0x2ff0 (_4.ptx:696) add.s32 %r154, %r130, 16;
GPGPU-Sim PTX: 30 (potential) branch divergence @  PC=0x3050 (_4.ptx:708) @%p25 bra $Lt_4_43010;
GPGPU-Sim PTX:    immediate post dominator      @  PC=0x3070 (_4.ptx:714) mov.s32 %r165, 0;
GPGPU-Sim PTX: 31 (potential) branch divergence @  PC=0x3060 (_4.ptx:710) bra.uni $Lt_4_42754;
GPGPU-Sim PTX:    immediate post dominator      @  PC=0x3070 (_4.ptx:714) mov.s32 %r165, 0;
GPGPU-Sim PTX: 32 (potential) branch divergence @  PC=0x3080 (_4.ptx:716) @!%p26 bra $Lt_4_43266;
GPGPU-Sim PTX:    immediate post dominator      @  PC=0x30b8 (_4.ptx:725) mov.s32 %r171, 0;
GPGPU-Sim PTX: 33 (potential) branch divergence @  PC=0x30c8 (_4.ptx:727) @!%p28 bra $Lt_4_43778;
GPGPU-Sim PTX:    immediate post dominator      @  PC=0x3100 (_4.ptx:736) mov.s32 %r177, 0;
GPGPU-Sim PTX: 34 (potential) branch divergence @  PC=0x3110 (_4.ptx:738) @!%p30 bra $Lt_4_44290;
GPGPU-Sim PTX:    immediate post dominator      @  PC=0x3160 (_4.ptx:751) shr.u32 %r186, %r130, 3;
GPGPU-Sim PTX: 35 (potential) branch divergence @  PC=0x31c8 (_4.ptx:764) @!%p26 bra $Lt_4_44802;
GPGPU-Sim PTX:    immediate post dominator      @  PC=0x31e8 (_4.ptx:769) @!%p28 bra $Lt_4_45314;
GPGPU-Sim PTX: 36 (potential) branch divergence @  PC=0x31e8 (_4.ptx:769) @!%p28 bra $Lt_4_45314;
GPGPU-Sim PTX:    immediate post dominator      @  PC=0x3208 (_4.ptx:774) @!%p30 bra $Lt_4_45826;
GPGPU-Sim PTX: 37 (potential) branch divergence @  PC=0x3208 (_4.ptx:774) @!%p30 bra $Lt_4_45826;
GPGPU-Sim PTX:    immediate post dominator      @  PC=0x3228 (_4.ptx:782) setp.lt.u32 %p32, %r6, %r12;
GPGPU-Sim PTX: 38 (potential) branch divergence @  PC=0x3230 (_4.ptx:783) @%p32 bra $Lt_4_40450;
GPGPU-Sim PTX:    immediate post dominator      @  PC=0x3238 (_4.ptx:787) bar.sync 0;
GPGPU-Sim PTX: 39 (potential) branch divergence @  PC=0x3248 (_4.ptx:790) @!%p1 bra $Lt_4_46594;
GPGPU-Sim PTX:    immediate post dominator      @  PC=0x3330 (_4.ptx:824) exit;
GPGPU-Sim PTX: 40 (potential) branch divergence @  PC=0x3328 (_4.ptx:821) @%p33 bra $Lt_4_47106;
GPGPU-Sim PTX:    immediate post dominator      @  PC=0x3330 (_4.ptx:824) exit;
GPGPU-Sim PTX: ... end of reconvergence points for _Z17histo_main_kernelP6uchar4jjjjjPjS1_S1_
GPGPU-Sim PTX: ... done pre-decoding instructions for '_Z17histo_main_kernelP6uchar4jjjjjPjS1_S1_'.
GPGPU-Sim PTX: finished parsing EMBEDDED .ptx file _4.ptx
Adding _cuobjdump_4.ptx with cubin handle 4
GPGPU-Sim PTX: extracting embedded .ptx to temporary file "_ptx_kcW0Fp"
Running: cat _ptx_kcW0Fp | sed 's/.version 1.5/.version 1.4/' | sed 's/, texmode_independent//' | sed 's/\(\.extern \.const\[1\] .b8 \w\+\)\[\]/\1\[1\]/' | sed 's/const\[.\]/const\[0\]/g' > _ptx2_bTfWZt
GPGPU-Sim PTX: generating ptxinfo using "$CUDA_INSTALL_PATH/bin/ptxas --gpu-name=sm_20 -v _ptx2_bTfWZt --output-file  /dev/null 2> _ptx_kcW0Fpinfo"
GPGPU-Sim PTX: Kernel '_Z17histo_main_kernelP6uchar4jjjjjPjS1_S1_' : regs=22, lmem=0, smem=24576, cmem=88
GPGPU-Sim PTX: removing ptxinfo using "rm -f _ptx_kcW0Fp _ptx2_bTfWZt _ptx_kcW0Fpinfo"
GPGPU-Sim PTX: loading globals with explicit initializers... 
GPGPU-Sim PTX: finished loading globals (0 bytes total).
GPGPU-Sim PTX: loading constants with explicit initializers...  done.
GPGPU-Sim PTX: __cudaRegisterFatBinary, fat_cubin_handle = 5, filename=histo_prescan.cu
GPGPU-Sim PTX: __cudaRegisterFunction _Z20histo_prescan_kernelPjiS_ : hostFun 0x0x404030, fat_cubin_handle = 5
GPGPU-Sim PTX: allocating shared region for "__cuda___cuda_local_var_41062_35_non_const_Avg24" from 0x0 to 0x800 (shared memory space)
GPGPU-Sim PTX: allocating shared region for "__cuda___cuda_local_var_41063_35_non_const_StdDev2072" from 0x800 to 0x1000 (shared memory space)
GPGPU-Sim PTX: instruction assembly for function '_Z20histo_prescan_kernelPjiS_'...   done.
GPGPU-Sim PTX: finding reconvergence points for '_Z20histo_prescan_kernelPjiS_'...
GPGPU-Sim PTX: Finding dominators for '_Z20histo_prescan_kernelPjiS_'...
GPGPU-Sim PTX: Finding immediate dominators for '_Z20histo_prescan_kernelPjiS_'...
GPGPU-Sim PTX: Finding postdominators for '_Z20histo_prescan_kernelPjiS_'...
GPGPU-Sim PTX: Finding immediate postdominators for '_Z20histo_prescan_kernelPjiS_'...
GPGPU-Sim PTX: pre-decoding instructions for '_Z20histo_prescan_kernelPjiS_'...
GPGPU-Sim PTX: reconvergence points for _Z20histo_prescan_kernelPjiS_...
GPGPU-Sim PTX:  1 (potential) branch divergence @  PC=0x33b0 (_5.ptx:80) @!%p1 bra $Lt_0_14082;
GPGPU-Sim PTX:    immediate post dominator      @  PC=0x3458 (_5.ptx:108) mov.u64 %rd7, __cuda___cuda_local_var_41062_35_non_const_Avg24;
GPGPU-Sim PTX:  2 (potential) branch divergence @  PC=0x3438 (_5.ptx:101) @%p2 bra $Lt_0_8450;
GPGPU-Sim PTX:    immediate post dominator      @  PC=0x3440 (_5.ptx:102) bra.uni $Lt_0_7938;
GPGPU-Sim PTX:  3 (potential) branch divergence @  PC=0x3440 (_5.ptx:102) bra.uni $Lt_0_7938;
GPGPU-Sim PTX:    immediate post dominator      @  PC=0x3458 (_5.ptx:108) mov.u64 %rd7, __cuda___cuda_local_var_41062_35_non_const_Avg24;
GPGPU-Sim PTX:  4 (potential) branch divergence @  PC=0x3498 (_5.ptx:118) @!%p1 bra $Lt_0_14338;
GPGPU-Sim PTX:    immediate post dominator      @  PC=0x3530 (_5.ptx:143) mov.u64 %rd16, __cuda___cuda_local_var_41063_35_non_const_StdDev2072;
GPGPU-Sim PTX:  5 (potential) branch divergence @  PC=0x3518 (_5.ptx:137) @%p3 bra $Lt_0_9474;
GPGPU-Sim PTX:    immediate post dominator      @  PC=0x3520 (_5.ptx:138) bra.uni $Lt_0_8962;
GPGPU-Sim PTX:  6 (potential) branch divergence @  PC=0x3520 (_5.ptx:138) bra.uni $Lt_0_8962;
GPGPU-Sim PTX:    immediate post dominator      @  PC=0x3530 (_5.ptx:143) mov.u64 %rd16, __cuda___cuda_local_var_41063_35_non_const_StdDev2072;
GPGPU-Sim PTX:  7 (potential) branch divergence @  PC=0x3570 (_5.ptx:155) @%p4 bra $Lt_0_10754;
GPGPU-Sim PTX:    immediate post dominator      @  PC=0x35e0 (_5.ptx:172) shr.s32 %r20, %r20, 1;
GPGPU-Sim PTX:  8 (potential) branch divergence @  PC=0x35f8 (_5.ptx:175) @%p5 bra $Lt_0_10498;
GPGPU-Sim PTX:    immediate post dominator      @  PC=0x3600 (_5.ptx:176) mov.u32 %r23, 15;
GPGPU-Sim PTX:  9 (potential) branch divergence @  PC=0x3610 (_5.ptx:178) @%p6 bra $Lt_0_11522;
GPGPU-Sim PTX:    immediate post dominator      @  PC=0x3658 (_5.ptx:189) mov.u32 %r24, 7;
GPGPU-Sim PTX: 10 (potential) branch divergence @  PC=0x3668 (_5.ptx:191) @%p7 bra $Lt_0_12034;
GPGPU-Sim PTX:    immediate post dominator      @  PC=0x36b0 (_5.ptx:202) mov.u32 %r25, 3;
GPGPU-Sim PTX: 11 (potential) branch divergence @  PC=0x36c0 (_5.ptx:204) @%p8 bra $Lt_0_12546;
GPGPU-Sim PTX:    immediate post dominator      @  PC=0x3708 (_5.ptx:215) mov.u32 %r26, 1;
GPGPU-Sim PTX: 12 (potential) branch divergence @  PC=0x3718 (_5.ptx:217) @%p9 bra $Lt_0_13058;
GPGPU-Sim PTX:    immediate post dominator      @  PC=0x3760 (_5.ptx:228) mov.u32 %r27, 0;
GPGPU-Sim PTX: 13 (potential) branch divergence @  PC=0x3770 (_5.ptx:230) @%p10 bra $Lt_0_13570;
GPGPU-Sim PTX:    immediate post dominator      @  PC=0x3840 (_5.ptx:261) exit;
GPGPU-Sim PTX: ... end of reconvergence points for _Z20histo_prescan_kernelPjiS_
GPGPU-Sim PTX: ... done pre-decoding instructions for '_Z20histo_prescan_kernelPjiS_'.
GPGPU-Sim PTX: finished parsing EMBEDDED .ptx file _5.ptx
Adding _cuobjdump_5.ptx with cubin handle 5
GPGPU-Sim PTX: extracting embedded .ptx to temporary file "_ptx_2V5Xqy"
Running: cat _ptx_2V5Xqy | sed 's/.version 1.5/.version 1.4/' | sed 's/, texmode_independent//' | sed 's/\(\.extern \.const\[1\] .b8 \w\+\)\[\]/\1\[1\]/' | sed 's/const\[.\]/const\[0\]/g' > _ptx2_D880RC
GPGPU-Sim PTX: generating ptxinfo using "$CUDA_INSTALL_PATH/bin/ptxas --gpu-name=sm_20 -v _ptx2_D880RC --output-file  /dev/null 2> _ptx_2V5Xqyinfo"
GPGPU-Sim PTX: Kernel '_Z20histo_prescan_kernelPjiS_' : regs=14, lmem=0, smem=4096, cmem=80
GPGPU-Sim PTX: removing ptxinfo using "rm -f _ptx_2V5Xqy _ptx2_D880RC _ptx_2V5Xqyinfo"
GPGPU-Sim PTX: loading globals with explicit initializers... 
GPGPU-Sim PTX: finished loading globals (0 bytes total).
GPGPU-Sim PTX: loading constants with explicit initializers...  done.
GPGPU-Sim PTX: __cudaRegisterFatBinary, fat_cubin_handle = 6, filename=util.cu
event update
event update

GPGPU-Sim PTX: cudaLaunch for 0x0x404030 (mode=performance simulation) on stream 0
GPGPU-Sim PTX: pushing kernel '_Z20histo_prescan_kernelPjiS_' to stream 0, gridDim= (64,1,1) blockDim = (512,1,1) 
####  CUstream_st::push: Start pushing kernel: histo_prescan_kernel  ####
kernel '_Z20histo_prescan_kernelPjiS_' transfer to GPU hardware scheduler
GPGPU-Sim uArch: Shader 1 bind to kernel 1 '_Z20histo_prescan_kernelPjiS_'
GPGPU-Sim uArch: CTA/core = 3, limited by: threads
GPGPU-Sim uArch: core:  1, cta: 0 initialized @(1,0)
GPGPU-Sim uArch: Shader 2 bind to kernel 1 '_Z20histo_prescan_kernelPjiS_'
GPGPU-Sim uArch: core:  2, cta: 0 initialized @(1,0)
GPGPU-Sim uArch: Shader 3 bind to kernel 1 '_Z20histo_prescan_kernelPjiS_'
GPGPU-Sim uArch: core:  3, cta: 0 initialized @(1,0)
GPGPU-Sim uArch: Shader 4 bind to kernel 1 '_Z20histo_prescan_kernelPjiS_'
GPGPU-Sim uArch: core:  4, cta: 0 initialized @(1,0)
GPGPU-Sim uArch: Shader 5 bind to kernel 1 '_Z20histo_prescan_kernelPjiS_'
GPGPU-Sim uArch: core:  5, cta: 0 initialized @(1,0)
GPGPU-Sim uArch: Shader 6 bind to kernel 1 '_Z20histo_prescan_kernelPjiS_'
GPGPU-Sim uArch: core:  6, cta: 0 initialized @(1,0)
GPGPU-Sim uArch: Shader 7 bind to kernel 1 '_Z20histo_prescan_kernelPjiS_'
GPGPU-Sim uArch: core:  7, cta: 0 initialized @(1,0)
GPGPU-Sim uArch: Shader 8 bind to kernel 1 '_Z20histo_prescan_kernelPjiS_'
GPGPU-Sim uArch: core:  8, cta: 0 initialized @(1,0)
GPGPU-Sim uArch: Shader 9 bind to kernel 1 '_Z20histo_prescan_kernelPjiS_'
GPGPU-Sim uArch: core:  9, cta: 0 initialized @(1,0)
GPGPU-Sim uArch: Shader 10 bind to kernel 1 '_Z20histo_prescan_kernelPjiS_'
GPGPU-Sim uArch: core: 10, cta: 0 initialized @(1,0)
GPGPU-Sim uArch: Shader 11 bind to kernel 1 '_Z20histo_prescan_kernelPjiS_'
GPGPU-Sim uArch: core: 11, cta: 0 initialized @(1,0)
GPGPU-Sim uArch: Shader 12 bind to kernel 1 '_Z20histo_prescan_kernelPjiS_'
GPGPU-Sim uArch: core: 12, cta: 0 initialized @(1,0)
GPGPU-Sim uArch: Shader 13 bind to kernel 1 '_Z20histo_prescan_kernelPjiS_'
GPGPU-Sim uArch: core: 13, cta: 0 initialized @(1,0)
GPGPU-Sim uArch: Shader 14 bind to kernel 1 '_Z20histo_prescan_kernelPjiS_'
GPGPU-Sim uArch: core: 14, cta: 0 initialized @(1,0)
GPGPU-Sim uArch: Shader 0 bind to kernel 1 '_Z20histo_prescan_kernelPjiS_'
GPGPU-Sim uArch: core:  0, cta: 0 initialized @(1,0)
GPGPU-Sim uArch: core:  1, cta: 1 initialized @(2,0)
GPGPU-Sim uArch: core:  2, cta: 1 initialized @(2,0)
GPGPU-Sim uArch: core:  3, cta: 1 initialized @(2,0)
GPGPU-Sim uArch: core:  4, cta: 1 initialized @(2,0)
GPGPU-Sim uArch: core:  5, cta: 1 initialized @(2,0)
GPGPU-Sim uArch: core:  6, cta: 1 initialized @(2,0)
GPGPU-Sim uArch: core:  7, cta: 1 initialized @(2,0)
GPGPU-Sim uArch: core:  8, cta: 1 initialized @(2,0)
GPGPU-Sim uArch: core:  9, cta: 1 initialized @(2,0)
GPGPU-Sim uArch: core: 10, cta: 1 initialized @(2,0)
GPGPU-Sim uArch: core: 11, cta: 1 initialized @(2,0)
GPGPU-Sim uArch: core: 12, cta: 1 initialized @(2,0)
GPGPU-Sim uArch: core: 13, cta: 1 initialized @(2,0)
GPGPU-Sim uArch: core: 14, cta: 1 initialized @(2,0)
GPGPU-Sim uArch: core:  0, cta: 1 initialized @(2,0)
GPGPU-Sim uArch: core:  1, cta: 2 initialized @(3,0)
GPGPU-Sim uArch: core:  2, cta: 2 initialized @(3,0)
GPGPU-Sim uArch: core:  3, cta: 2 initialized @(3,0)
GPGPU-Sim uArch: core:  4, cta: 2 initialized @(3,0)
GPGPU-Sim uArch: core:  5, cta: 2 initialized @(3,0)
GPGPU-Sim uArch: core:  6, cta: 2 initialized @(3,0)
GPGPU-Sim uArch: core:  7, cta: 2 initialized @(3,0)
GPGPU-Sim uArch: core:  8, cta: 2 initialized @(3,0)
GPGPU-Sim uArch: core:  9, cta: 2 initialized @(3,0)
GPGPU-Sim uArch: core: 10, cta: 2 initialized @(3,0)
GPGPU-Sim uArch: core: 11, cta: 2 initialized @(3,0)
GPGPU-Sim uArch: core: 12, cta: 2 initialized @(3,0)
GPGPU-Sim uArch: core: 13, cta: 2 initialized @(3,0)
GPGPU-Sim uArch: core: 14, cta: 2 initialized @(3,0)
GPGPU-Sim uArch: core:  0, cta: 2 initialized @(3,0)
GPGPU-Sim uArch: Shader 2 finished CTA #0 (9096,0), 2 CTAs running
GPGPU-Sim uArch: core:  2, cta: 0 initialized @(9097,0)
GPGPU-Sim uArch: Shader 10 finished CTA #1 (9102,0), 2 CTAs running
GPGPU-Sim uArch: core: 10, cta: 1 initialized @(9103,0)
GPGPU-Sim uArch: Shader 11 finished CTA #0 (9136,0), 2 CTAs running
GPGPU-Sim uArch: core: 11, cta: 0 initialized @(9137,0)
GPGPU-Sim uArch: Shader 2 finished CTA #2 (9154,0), 2 CTAs running
GPGPU-Sim uArch: core:  2, cta: 2 initialized @(9155,0)
GPGPU-Sim uArch: Shader 7 finished CTA #0 (9198,0), 2 CTAs running
GPGPU-Sim uArch: core:  7, cta: 0 initialized @(9199,0)
GPGPU-Sim uArch: Shader 1 finished CTA #1 (9209,0), 2 CTAs running
GPGPU-Sim uArch: core:  1, cta: 1 initialized @(9210,0)
GPGPU-Sim uArch: Shader 7 finished CTA #1 (9215,0), 2 CTAs running
GPGPU-Sim uArch: core:  7, cta: 1 initialized @(9216,0)
GPGPU-Sim uArch: Shader 3 finished CTA #0 (9219,0), 2 CTAs running
GPGPU-Sim uArch: core:  3, cta: 0 initialized @(9220,0)
GPGPU-Sim uArch: Shader 1 finished CTA #2 (9226,0), 2 CTAs running
GPGPU-Sim uArch: Shader 1 finished CTA #0 (9226,0), 1 CTAs running
GPGPU-Sim uArch: core:  1, cta: 0 initialized @(9227,0)
GPGPU-Sim uArch: core:  1, cta: 2 initialized @(9228,0)
GPGPU-Sim uArch: Shader 3 finished CTA #1 (9236,0), 2 CTAs running
GPGPU-Sim uArch: Shader 3 finished CTA #2 (9236,0), 1 CTAs running
GPGPU-Sim uArch: core:  3, cta: 1 initialized @(9237,0)
GPGPU-Sim uArch: core:  3, cta: 2 initialized @(9238,0)
GPGPU-Sim uArch: Shader 7 finished CTA #2 (9278,0), 2 CTAs running
GPGPU-Sim uArch: core:  7, cta: 2 initialized @(9279,0)
GPGPU-Sim uArch: Shader 2 finished CTA #1 (9401,0), 2 CTAs running
GPGPU-Sim uArch: core:  2, cta: 1 initialized @(9402,0)
GPGPU-Sim uArch: Shader 10 finished CTA #2 (9409,0), 2 CTAs running
GPGPU-Sim uArch: core: 10, cta: 2 initialized @(9410,0)
GPGPU-Sim uArch: Shader 11 finished CTA #1 (9506,0), 2 CTAs running
GPGPU-Sim uArch: core: 11, cta: 1 initialized @(9507,0)
GPGPU-Sim uArch: Shader 10 finished CTA #0 (9642,0), 2 CTAs running
GPGPU-Sim uArch: core: 10, cta: 0 initialized @(9643,0)
GPGPU-Sim uArch: Shader 12 finished CTA #0 (9663,0), 2 CTAs running
GPGPU-Sim uArch: core: 12, cta: 0 initialized @(9664,0)
GPGPU-Sim uArch: Shader 11 finished CTA #2 (9673,0), 2 CTAs running
GPGPU-Sim uArch: core: 11, cta: 2 initialized @(9674,0)
GPGPU-Sim uArch: Shader 12 finished CTA #1 (9680,0), 2 CTAs running
GPGPU-Sim uArch: Shader 14 finished CTA #1 (9684,0), 2 CTAs running
GPGPU-Sim uArch: Shader 0 finished CTA #0 (9693,0), 2 CTAs running
GPGPU-Sim uArch: Shader 0 finished CTA #2 (9699,0), 1 CTAs running
GPGPU-Sim uArch: Shader 12 finished CTA #2 (9709,0), 1 CTAs running
GPGPU-Sim uArch: Shader 0 finished CTA #1 (9723,0), 0 CTAs running
GPGPU-Sim uArch: Shader 0 empty (release kernel 1 '_Z20histo_prescan_kernelPjiS_').
GPGPU-Sim uArch: Shader 14 finished CTA #0 (9752,0), 1 CTAs running
GPGPU-Sim uArch: Shader 14 finished CTA #2 (9804,0), 0 CTAs running
GPGPU-Sim uArch: Shader 14 empty (release kernel 1 '_Z20histo_prescan_kernelPjiS_').
GPGPU-Sim uArch: Shader 13 finished CTA #0 (9817,0), 2 CTAs running
GPGPU-Sim uArch: Shader 13 finished CTA #1 (9867,0), 1 CTAs running
GPGPU-Sim uArch: Shader 13 finished CTA #2 (9939,0), 0 CTAs running
GPGPU-Sim uArch: Shader 13 empty (release kernel 1 '_Z20histo_prescan_kernelPjiS_').
GPGPU-Sim uArch: Shader 6 finished CTA #0 (10188,0), 2 CTAs running
GPGPU-Sim uArch: Shader 6 finished CTA #1 (10191,0), 1 CTAs running
GPGPU-Sim uArch: Shader 6 finished CTA #2 (10194,0), 0 CTAs running
GPGPU-Sim uArch: Shader 6 empty (release kernel 1 '_Z20histo_prescan_kernelPjiS_').
GPGPU-Sim uArch: Shader 9 finished CTA #1 (10218,0), 2 CTAs running
GPGPU-Sim uArch: Shader 9 finished CTA #2 (10230,0), 1 CTAs running
GPGPU-Sim uArch: Shader 9 finished CTA #0 (10311,0), 0 CTAs running
GPGPU-Sim uArch: Shader 9 empty (release kernel 1 '_Z20histo_prescan_kernelPjiS_').
GPGPU-Sim uArch: Shader 8 finished CTA #1 (10404,0), 2 CTAs running
GPGPU-Sim uArch: Shader 8 finished CTA #2 (10407,0), 1 CTAs running
GPGPU-Sim uArch: Shader 8 finished CTA #0 (10446,0), 0 CTAs running
GPGPU-Sim uArch: Shader 8 empty (release kernel 1 '_Z20histo_prescan_kernelPjiS_').
GPGPU-Sim uArch: Shader 4 finished CTA #1 (10464,0), 2 CTAs running
GPGPU-Sim uArch: Shader 4 finished CTA #0 (10467,0), 1 CTAs running
GPGPU-Sim uArch: Shader 4 finished CTA #2 (10470,0), 0 CTAs running
GPGPU-Sim uArch: Shader 4 empty (release kernel 1 '_Z20histo_prescan_kernelPjiS_').
GPGPU-Sim uArch: Shader 5 finished CTA #0 (10494,0), 2 CTAs running
GPGPU-Sim uArch: Shader 5 finished CTA #1 (10497,0), 1 CTAs running
GPGPU-Sim uArch: Shader 5 finished CTA #2 (10506,0), 0 CTAs running
GPGPU-Sim uArch: Shader 5 empty (release kernel 1 '_Z20histo_prescan_kernelPjiS_').
GPGPU-Sim uArch: Shader 12 finished CTA #0 (13372,0), 0 CTAs running
GPGPU-Sim uArch: Shader 12 empty (release kernel 1 '_Z20histo_prescan_kernelPjiS_').
GPGPU-Sim uArch: Shader 10 finished CTA #2 (15659,0), 2 CTAs running
GPGPU-Sim uArch: Shader 2 finished CTA #0 (15746,0), 2 CTAs running
GPGPU-Sim uArch: Shader 2 finished CTA #2 (15756,0), 1 CTAs running
GPGPU-Sim uArch: Shader 2 finished CTA #1 (15801,0), 0 CTAs running
GPGPU-Sim uArch: Shader 2 empty (release kernel 1 '_Z20histo_prescan_kernelPjiS_').
GPGPU-Sim uArch: Shader 10 finished CTA #1 (15975,0), 1 CTAs running
GPGPU-Sim uArch: Shader 10 finished CTA #0 (16022,0), 0 CTAs running
GPGPU-Sim uArch: Shader 10 empty (release kernel 1 '_Z20histo_prescan_kernelPjiS_').
GPGPU-Sim uArch: Shader 11 finished CTA #0 (16389,0), 2 CTAs running
GPGPU-Sim uArch: Shader 1 finished CTA #1 (16559,0), 2 CTAs running
GPGPU-Sim uArch: Shader 7 finished CTA #0 (16590,0), 2 CTAs running
GPGPU-Sim uArch: Shader 11 finished CTA #2 (16596,0), 1 CTAs running
GPGPU-Sim uArch: Shader 11 finished CTA #1 (16669,0), 0 CTAs running
GPGPU-Sim uArch: Shader 11 empty (release kernel 1 '_Z20histo_prescan_kernelPjiS_').
GPGPU-Sim uArch: Shader 7 finished CTA #2 (16693,0), 1 CTAs running
GPGPU-Sim uArch: Shader 7 finished CTA #1 (16741,0), 0 CTAs running
GPGPU-Sim uArch: Shader 7 empty (release kernel 1 '_Z20histo_prescan_kernelPjiS_').
GPGPU-Sim uArch: Shader 1 finished CTA #2 (16831,0), 1 CTAs running
GPGPU-Sim uArch: Shader 3 finished CTA #0 (16834,0), 2 CTAs running
GPGPU-Sim uArch: Shader 1 finished CTA #0 (16860,0), 0 CTAs running
GPGPU-Sim uArch: Shader 1 empty (release kernel 1 '_Z20histo_prescan_kernelPjiS_').
GPGPU-Sim uArch: Shader 3 finished CTA #1 (16931,0), 1 CTAs running
GPGPU-Sim uArch: Shader 3 finished CTA #2 (16985,0), 0 CTAs running
GPGPU-Sim uArch: Shader 3 empty (release kernel 1 '_Z20histo_prescan_kernelPjiS_').
GPGPU-Sim uArch: GPU detected kernel '_Z20histo_prescan_kernelPjiS_' finished on shader 3.
kernel_name = _Z20histo_prescan_kernelPjiS_ 
kernel_launch_uid = 1 
gpu_sim_cycle = 16986
gpu_sim_insn = 5371520
gpu_ipc =     316.2322
gpu_tot_sim_cycle = 16986
gpu_tot_sim_insn = 5371520
gpu_tot_ipc =     316.2322
gpu_tot_issued_cta = 0
gpu_stall_dramfull = 17115
gpu_stall_icnt2sh    = 66987
gpu_total_sim_rate=447626

========= Core cache stats =========
L1I_cache:
	L1I_total_cache_accesses = 106106
	L1I_total_cache_misses = 3450
	L1I_total_cache_miss_rate = 0.0325
	L1I_total_cache_pending_hits = 0
	L1I_total_cache_reservation_fails = 6292
L1D_cache:
	L1D_cache_core[0]: Access = 764, Miss = 485, Miss_rate = 0.635, Pending_hits = 107, Reservation_fails = 3435
	L1D_cache_core[1]: Access = 1398, Miss = 878, Miss_rate = 0.628, Pending_hits = 196, Reservation_fails = 5477
	L1D_cache_core[2]: Access = 1524, Miss = 800, Miss_rate = 0.525, Pending_hits = 334, Reservation_fails = 4911
	L1D_cache_core[3]: Access = 1400, Miss = 932, Miss_rate = 0.666, Pending_hits = 181, Reservation_fails = 5202
	L1D_cache_core[4]: Access = 762, Miss = 522, Miss_rate = 0.685, Pending_hits = 69, Reservation_fails = 3949
	L1D_cache_core[5]: Access = 764, Miss = 542, Miss_rate = 0.709, Pending_hits = 77, Reservation_fails = 4210
	L1D_cache_core[6]: Access = 764, Miss = 547, Miss_rate = 0.716, Pending_hits = 66, Reservation_fails = 4021
	L1D_cache_core[7]: Access = 1526, Miss = 933, Miss_rate = 0.611, Pending_hits = 228, Reservation_fails = 5797
	L1D_cache_core[8]: Access = 764, Miss = 500, Miss_rate = 0.654, Pending_hits = 116, Reservation_fails = 3915
	L1D_cache_core[9]: Access = 764, Miss = 547, Miss_rate = 0.716, Pending_hits = 55, Reservation_fails = 3755
	L1D_cache_core[10]: Access = 1526, Miss = 895, Miss_rate = 0.587, Pending_hits = 278, Reservation_fails = 5499
	L1D_cache_core[11]: Access = 1528, Miss = 944, Miss_rate = 0.618, Pending_hits = 246, Reservation_fails = 5707
	L1D_cache_core[12]: Access = 1016, Miss = 516, Miss_rate = 0.508, Pending_hits = 195, Reservation_fails = 3450
	L1D_cache_core[13]: Access = 764, Miss = 476, Miss_rate = 0.623, Pending_hits = 135, Reservation_fails = 3803
	L1D_cache_core[14]: Access = 764, Miss = 478, Miss_rate = 0.626, Pending_hits = 143, Reservation_fails = 3823
	L1D_total_cache_accesses = 16028
	L1D_total_cache_misses = 9995
	L1D_total_cache_miss_rate = 0.6236
	L1D_total_cache_pending_hits = 2426
	L1D_total_cache_reservation_fails = 66954
	L1D_cache_data_port_util = 0.019
	L1D_cache_fill_port_util = 0.052
L1C_cache:
	L1C_total_cache_accesses = 3136
	L1C_total_cache_misses = 480
	L1C_total_cache_miss_rate = 0.1531
	L1C_total_cache_pending_hits = 0
	L1C_total_cache_reservation_fails = 3285
L1T_cache:
	L1T_total_cache_accesses = 0
	L1T_total_cache_misses = 0
	L1T_total_cache_pending_hits = 0
	L1T_total_cache_reservation_fails = 0

Total_core_cache_stats:
	Total_core_cache_stats_breakdown[GLOBAL_ACC_R][HIT] = 3607
	Total_core_cache_stats_breakdown[GLOBAL_ACC_R][HIT_RESERVED] = 2426
	Total_core_cache_stats_breakdown[GLOBAL_ACC_R][MISS] = 9995
	Total_core_cache_stats_breakdown[GLOBAL_ACC_R][RESERVATION_FAIL] = 66954
	Total_core_cache_stats_breakdown[CONST_ACC_R][HIT] = 2656
	Total_core_cache_stats_breakdown[CONST_ACC_R][MISS] = 480
	Total_core_cache_stats_breakdown[CONST_ACC_R][RESERVATION_FAIL] = 3285
	Total_core_cache_stats_breakdown[INST_ACC_R][HIT] = 102656
	Total_core_cache_stats_breakdown[INST_ACC_R][MISS] = 3450
	Total_core_cache_stats_breakdown[INST_ACC_R][RESERVATION_FAIL] = 6292
Shader 0 warp_id issue ditsribution:
warp_id:
0, 1, 2, 3, 4, 5, 6, 7, 8, 9, 10, 11, 12, 13, 14, 15, 16, 17, 18, 19, 20, 21, 22, 23, 24, 25, 26, 27, 28, 29, 30, 31, 32, 33, 34, 35, 36, 37, 38, 39, 40, 41, 42, 43, 44, 45, 46, 47, 
distro:
267, 197, 184, 184, 171, 171, 171, 171, 158, 158, 158, 158, 158, 158, 158, 158, 267, 197, 184, 184, 171, 171, 171, 171, 158, 158, 158, 158, 158, 158, 158, 158, 267, 197, 184, 184, 171, 171, 171, 171, 158, 158, 158, 158, 158, 158, 158, 158, 
gpgpu_n_tot_thrd_icount = 5693440
gpgpu_n_tot_w_icount = 177920
gpgpu_n_stall_shd_mem = 78075
gpgpu_n_mem_read_local = 0
gpgpu_n_mem_write_local = 0
gpgpu_n_mem_read_global = 10123
gpgpu_n_mem_write_global = 0
gpgpu_n_mem_texture = 0
gpgpu_n_mem_const = 15
gpgpu_n_load_insn  = 259072
gpgpu_n_store_insn = 0
gpgpu_n_shmem_insn = 261504
gpgpu_n_tex_insn = 0
gpgpu_n_const_mem_insn = 0
gpgpu_n_param_mem_insn = 98368
gpgpu_n_shmem_bkconflict = 0
gpgpu_n_cache_bkconflict = 0
gpgpu_n_intrawarp_mshr_merge = 0
gpgpu_n_cmem_portconflict = 3285
gpgpu_stall_shd_mem[c_mem][bk_conf] = 3285
gpgpu_stall_shd_mem[c_mem][mshr_rc] = 0
gpgpu_stall_shd_mem[c_mem][icnt_rc] = 0
gpgpu_stall_shd_mem[c_mem][data_port_stall] = 0
gpgpu_stall_shd_mem[t_mem][mshr_rc] = 0
gpgpu_stall_shd_mem[t_mem][icnt_rc] = 0
gpgpu_stall_shd_mem[t_mem][data_port_stall] = 0
gpgpu_stall_shd_mem[s_mem][bk_conf] = 0
gpgpu_stall_shd_mem[gl_mem][bk_conf] = 0
gpgpu_stall_shd_mem[gl_mem][coal_stall] = 74790
gpgpu_stall_shd_mem[gl_mem][data_port_stall] = 0
gpgpu_stall_shd_mem[g_mem_ld][mshr_rc] = 0
gpgpu_stall_shd_mem[g_mem_ld][icnt_rc] = 0
gpgpu_stall_shd_mem[g_mem_ld][wb_icnt_rc] = 0
gpgpu_stall_shd_mem[g_mem_ld][wb_rsrv_fail] = 0
gpgpu_stall_shd_mem[g_mem_st][mshr_rc] = 0
gpgpu_stall_shd_mem[g_mem_st][icnt_rc] = 0
gpgpu_stall_shd_mem[g_mem_st][wb_icnt_rc] = 0
gpgpu_stall_shd_mem[g_mem_st][wb_rsrv_fail] = 0
gpgpu_stall_shd_mem[l_mem_ld][mshr_rc] = 0
gpgpu_stall_shd_mem[l_mem_ld][icnt_rc] = 0
gpgpu_stall_shd_mem[l_mem_ld][wb_icnt_rc] = 0
gpgpu_stall_shd_mem[l_mem_ld][wb_rsrv_fail] = 0
gpgpu_stall_shd_mem[l_mem_st][mshr_rc] = 0
gpgpu_stall_shd_mem[l_mem_st][icnt_rc] = 0
gpgpu_stall_shd_mem[l_mem_ld][wb_icnt_rc] = 0
gpgpu_stall_shd_mem[l_mem_ld][wb_rsrv_fail] = 0
gpu_reg_bank_conflict_stalls = 0
Warp Occupancy Distribution:
Stall:109674	W0_Idle:51353	W0_Scoreboard:48769	W1:1600	W2:512	W3:0	W4:512	W5:0	W6:0	W7:1024	W8:512	W9:0	W10:0	W11:0	W12:0	W13:0	W14:0	W15:0	W16:512	W17:0	W18:0	W19:0	W20:0	W21:0	W22:0	W23:0	W24:0	W25:0	W26:0	W27:0	W28:0	W29:0	W30:0	W31:0	W32:173248
traffic_breakdown_coretomem[CONST_ACC_R] = 120 {8:15,}
traffic_breakdown_coretomem[GLOBAL_ACC_R] = 79960 {8:9995,}
traffic_breakdown_coretomem[GLOBAL_ATOMIC] = 5120 {40:128,}
traffic_breakdown_coretomem[INST_ACC_R] = 1320 {8:165,}
traffic_breakdown_memtocore[CONST_ACC_R] = 1080 {72:15,}
traffic_breakdown_memtocore[GLOBAL_ACC_R] = 1359320 {136:9995,}
traffic_breakdown_memtocore[GLOBAL_ATOMIC] = 5120 {40:128,}
traffic_breakdown_memtocore[INST_ACC_R] = 22440 {136:165,}
maxmrqlatency = 193 
maxdqlatency = 0 
maxmflatency = 707 
max_icnt2mem_latency = 408 
max_icnt2sh_latency = 140 
mrq_lat_table:2158 	76 	127 	260 	721 	459 	270 	50 	0 	0 	0 	0 	0 	0 	0 	0 	0 	0 	0 	0 	0 	0 	0 	0 	0 	0 	0 	0 	0 	0 	0 	0 	
dq_lat_table:0 	0 	0 	0 	0 	0 	0 	0 	0 	0 	0 	0 	0 	0 	0 	0 	0 	0 	0 	0 	0 	0 	0 	0 	0 	0 	0 	0 	0 	0 	0 	0 	
mf_lat_table:0 	0 	0 	0 	0 	0 	0 	2922 	6652 	564 	0 	0 	0 	0 	0 	0 	0 	0 	0 	0 	0 	0 	0 	0 	0 	0 	0 	0 	0 	0 	0 	0 	
icnt2mem_lat_table:0 	0 	0 	7866 	495 	627 	703 	519 	93 	0 	0 	0 	0 	0 	0 	0 	0 	0 	0 	0 	0 	0 	0 	0 	
icnt2sh_lat_table:0 	0 	0 	816 	5094 	3775 	452 	1 	0 	0 	0 	0 	0 	0 	0 	0 	0 	0 	0 	0 	0 	0 	0 	0 	
mf_lat_pw_table:0 	0 	0 	0 	0 	0 	0 	0 	0 	0 	0 	0 	0 	0 	0 	0 	0 	0 	0 	0 	0 	0 	0 	0 	0 	0 	0 	0 	0 	0 	0 	0 	
maximum concurrent accesses to same row:
dram[0]:         2         3         4         2         2         2         3         2         2         3         2         4         4         4         4         4 
dram[1]:         2         2         2         4         4         2         2         2         2         4         2         2         4         4         4         3 
dram[2]:         2         2         2         4         2         2         2         2         2         2         2         4         4         4         4         4 
dram[3]:         4         4         4         2         2         2         2         2         2         3         3         2         4         4         2         4 
dram[4]:         3         2         4         2         2         2         2         2         2         4         3         2         4         3         4         4 
dram[5]:         4         2         2         4         2         2         2         4         2         4         2         2         3         4         4         3 
maximum service time to same row:
dram[0]:      6082      2985      5482      6356      6593      7602      4070      5929      6356      6072      6307      6660      6324      6912      5680      5862 
dram[1]:      6168      3854      6375      6408      6630      7517      6212      6023      5424      5997      6076      6255      6646      6962      5263      5875 
dram[2]:      5677      4532      6355      4665      6794      7174      6085      4035      6621      6307      6146      6107      6341      6961      5185      5517 
dram[3]:      5923      5936      6497      6357      6912      6327      6092      6098      6175      6171      6033      6294      6649      6683      5387      5526 
dram[4]:      5512      6132      6026      6225      7417      6874      5708      6035      5614      6517      5518      6502      6462      6874      5075      5974 
dram[5]:      3277      6510      6165      6231      6734      1724      5437      6043      5666      6474      5773      6609      4676      6990      5897      6004 
average row accesses per activate:
dram[0]:  1.800000  1.727273  2.176471  1.800000  1.586207  1.571429  1.593750  1.529412  1.500000  1.680000  1.904762  1.952381  2.000000  2.000000  1.814815  1.612903 
dram[1]:  1.666667  1.772727  1.761905  2.266667  1.769231  1.629630  1.851852  1.733333  1.576923  1.750000  1.782609  2.000000  2.047619  2.222222  1.851852  1.562500 
dram[2]:  1.500000  1.608696  1.947368  2.187500  1.551724  1.629630  1.575758  1.636364  1.666667  1.708333  1.826087  1.909091  1.826087  1.818182  1.851852  1.700000 
dram[3]:  1.900000  1.894737  2.111111  1.750000  1.571429  1.680000  1.485714  1.862069  1.680000  1.708333  2.000000  1.555556  2.210526  2.000000  1.724138  1.851852 
dram[4]:  1.695652  1.636364  2.000000  1.888889  1.517241  1.500000  1.606061  1.588235  1.555556  1.739130  1.869565  1.791667  1.909091  1.600000  1.821429  1.666667 
dram[5]:  1.900000  1.789474  1.800000  2.000000  1.730769  1.680000  1.677419  1.862069  1.500000  1.666667  1.592593  2.000000  1.952381  1.904762  1.851852  1.700000 
average row locality = 4121/2355 = 1.749894
number of total memory accesses made:
dram[0]:         0         0         0         0         0         0         0         0         0         0         0         0         0         0         0         0 
dram[1]:         0         0         0         0         0         0         0         0         0         0         0         0         0         0         0         0 
dram[2]:         0         0         0         0         0         0         0         0         0         0         0         0         0         0         0         0 
dram[3]:         0         0         0         0         0         0         0         0         0         0         0         0         0         0         0         0 
dram[4]:         0         0         0         0         0         0         0         0         0         0         0         0         0         0         0         0 
dram[5]:         0         0         0         0         0         0         0         0         0         0         0         0         0         0         0         0 
total accesses: 0
min_bank_accesses = 0!
min_chip_accesses = 0!
number of total read accesses:
dram[0]:        36        38        37        36        46        44        51        52        42        42        40        41        42        40        49        50 
dram[1]:        35        39        37        34        46        44        50        52        41        42        41        40        43        40        50        50 
dram[2]:        36        37        37        35        45        44        52        54        40        41        42        42        42        40        50        51 
dram[3]:        38        36        38        35        44        42        52        54        42        41        42        42        42        40        50        50 
dram[4]:        39        36        36        34        44        42        53        54        42        40        43        43        42        40        51        50 
dram[5]:        38        34        36        36        45        42        52        54        42        40        43        42        41        40        50        51 
total reads: 4121
bank skew: 54/34 = 1.59
chip skew: 689/684 = 1.01
number of total write accesses:
dram[0]:         0         0         0         0         0         0         0         0         0         0         0         0         0         0         0         0 
dram[1]:         0         0         0         0         0         0         0         0         0         0         0         0         0         0         0         0 
dram[2]:         0         0         0         0         0         0         0         0         0         0         0         0         0         0         0         0 
dram[3]:         0         0         0         0         0         0         0         0         0         0         0         0         0         0         0         0 
dram[4]:         0         0         0         0         0         0         0         0         0         0         0         0         0         0         0         0 
dram[5]:         0         0         0         0         0         0         0         0         0         0         0         0         0         0         0         0 
total reads: 0
min_bank_accesses = 0!
min_chip_accesses = 0!
average mf latency per bank:
dram[0]:        888       577       758       569       870       615       903       692       768       565       804       663       897       682       786       611
dram[1]:        752       668       680       732       738       675       815       750       710       670       711       695       779       705       711       696
dram[2]:        823       729       797       649       884       771       933       763       777       668       840       685       948       777       807       743
dram[3]:        819      1039       817       847       748      1033       835      1086       738       896       824       882       766      1134       798       984
dram[4]:        829       681       830       630       932       655       897       752       785       620       846       626       993       704       882       629
dram[5]:        707       798       701       793       740       807       797       855       692       764       764       759      1267       861       747       758
maximum mf latency per bank:
dram[0]:        583       452       559       496       595       614       631       660       485       518       490       378       514       544       600       592
dram[1]:        525       425       539       546       618       621       635       641       569       450       562       437       608       547       604       480
dram[2]:        572       521       521       521       632       583       596       596       554       497       530       533       670       521       632       605
dram[3]:        536       671       509       592       549       707       603       689       551       683       523       587       530       635       570       635
dram[4]:        641       502       617       399       653       548       629       453       577       432       580       425       604       417       623       464
dram[5]:        569       533       449       511       582       614       550       639       522       602       455       553       461       607       449       563
Memory Partition 0: 
Cache L2_bank_000:
MSHR contents

Cache L2_bank_001:
MSHR contents

In Dram Latency Queue (total = 0): 
DRAM[0]: 16 bks, busW=4 BL=8 CL=12, tRRD=2 tCCD=6, tRCD=12 tRAS=28 tRP=12 tRC=40
n_cmd=22104 n_nop=19954 n_act=397 n_pre=381 n_req=686 n_rd=1372 n_write=0 bw_util=0.1241
n_activity=5889 dram_eff=0.466
bk0: 72a 21143i bk1: 76a 21188i bk2: 74a 21218i bk3: 72a 21244i bk4: 92a 20729i bk5: 88a 20624i bk6: 102a 20600i bk7: 104a 20503i bk8: 84a 20907i bk9: 84a 20922i bk10: 80a 21072i bk11: 82a 21043i bk12: 84a 20886i bk13: 80a 20966i bk14: 98a 20537i bk15: 100a 20480i 
dram_util_bins: 0 0 0 0 0 0 0 0 0 0
dram_eff_bins: 0 0 0 0 0 0 0 0 0 0
mrqq: max=16 avg=0.69933
Memory Partition 1: 
Cache L2_bank_002:
MSHR contents

Cache L2_bank_003:
MSHR contents

In Dram Latency Queue (total = 0): 
DRAM[1]: 16 bks, busW=4 BL=8 CL=12, tRRD=2 tCCD=6, tRCD=12 tRAS=28 tRP=12 tRC=40
n_cmd=22104 n_nop=19992 n_act=380 n_pre=364 n_req=684 n_rd=1368 n_write=0 bw_util=0.1238
n_activity=5919 dram_eff=0.4622
bk0: 70a 21194i bk1: 78a 21148i bk2: 74a 21172i bk3: 68a 21411i bk4: 92a 20733i bk5: 88a 20739i bk6: 100a 20594i bk7: 104a 20464i bk8: 82a 20746i bk9: 84a 21065i bk10: 82a 21009i bk11: 80a 21220i bk12: 86a 20960i bk13: 80a 20856i bk14: 100a 20632i bk15: 100a 20462i 
dram_util_bins: 0 0 0 0 0 0 0 0 0 0
dram_eff_bins: 0 0 0 0 0 0 0 0 0 0
mrqq: max=16 avg=0.728465
Memory Partition 2: 
Cache L2_bank_004:
MSHR contents

Cache L2_bank_005:
MSHR contents

In Dram Latency Queue (total = 0): 
DRAM[2]: 16 bks, busW=4 BL=8 CL=12, tRRD=2 tCCD=6, tRCD=12 tRAS=28 tRP=12 tRC=40
n_cmd=22104 n_nop=19946 n_act=399 n_pre=383 n_req=688 n_rd=1376 n_write=0 bw_util=0.1245
n_activity=5688 dram_eff=0.4838
bk0: 72a 21115i bk1: 74a 21073i bk2: 74a 21188i bk3: 70a 21367i bk4: 90a 20694i bk5: 88a 20726i bk6: 104a 20316i bk7: 108a 20436i bk8: 80a 21073i bk9: 82a 21010i bk10: 84a 21041i bk11: 84a 21061i bk12: 84a 20814i bk13: 80a 20910i bk14: 100a 20321i bk15: 102a 20207i 
dram_util_bins: 0 0 0 0 0 0 0 0 0 0
dram_eff_bins: 0 0 0 0 0 0 0 0 0 0
mrqq: max=16 avg=0.808315
Memory Partition 3: 
Cache L2_bank_006:
MSHR contents

Cache L2_bank_007:
MSHR contents

In Dram Latency Queue (total = 0): 
DRAM[3]: 16 bks, busW=4 BL=8 CL=12, tRRD=2 tCCD=6, tRCD=12 tRAS=28 tRP=12 tRC=40
n_cmd=22104 n_nop=19972 n_act=386 n_pre=370 n_req=688 n_rd=1376 n_write=0 bw_util=0.1245
n_activity=5892 dram_eff=0.4671
bk0: 76a 21230i bk1: 72a 21120i bk2: 76a 21341i bk3: 70a 21195i bk4: 88a 20836i bk5: 84a 20771i bk6: 104a 20526i bk7: 108a 20432i bk8: 84a 21019i bk9: 82a 20970i bk10: 84a 21158i bk11: 84a 20843i bk12: 84a 20928i bk13: 80a 20873i bk14: 100a 20636i bk15: 100a 20486i 
dram_util_bins: 0 0 0 0 0 0 0 0 0 0
dram_eff_bins: 0 0 0 0 0 0 0 0 0 0
[...]
	L2_cache_stats_breakdown[INST_ACC_R][HIT] = 2423
	L2_cache_stats_breakdown[INST_ACC_R][HIT_RESERVED] = 365
	L2_cache_stats_breakdown[INST_ACC_R][MISS] = 273
	L2_cache_stats_breakdown[INST_ACC_R][RESERVATION_FAIL] = 7610
L2_cache_data_port_util = 0.020
L2_cache_fill_port_util = 0.233

icnt_total_pkts_mem_to_simt=1678835
icnt_total_pkts_simt_to_mem=851333
LD_mem_lat_dist  0 0 0 0 0 0 0 0 0 0 0 0 0 0 0 0 0 0 0 0 0 0 0 0 0 0 0
ST_mem_lat_dist  0 0 0 0 0 0 0 0 0 0 0 0 0 0 0 0 0 0 0 0 0 0 0 0 0 0 0
----------------------------Interconnect-DETAILS--------------------------------
Class 0:
Packet latency average = 39.8762
	minimum = 6
	maximum = 678
Network latency average = 25.6489
	minimum = 6
	maximum = 534
Slowest packet = 847590
Flit latency average = 22.6357
	minimum = 6
	maximum = 534
Slowest flit = 2345009
Fragmentation average = 0.155855
	minimum = 0
	maximum = 351
Injected packet rate average = 0.0799615
	minimum = 0.0557206 (at node 3)
	maximum = 0.0900348 (at node 16)
Accepted packet rate average = 0.0799615
	minimum = 0.0557206 (at node 3)
	maximum = 0.0900348 (at node 16)
Injected flit rate average = 0.178894
	minimum = 0.114338 (at node 3)
	maximum = 0.217238 (at node 16)
Accepted flit rate average= 0.178894
	minimum = 0.136831 (at node 3)
	maximum = 0.185544 (at node 16)
Injected packet length average = 2.23725
Accepted packet length average = 2.23725
Total in-flight flits = 0 (0 measured)
====== Overall Traffic Statistics ======
====== Traffic class 0 ======
Packet latency average = 32.1401 (4 samples)
	minimum = 6 (4 samples)
	maximum = 548 (4 samples)
Network latency average = 21.5762 (4 samples)
	minimum = 6 (4 samples)
	maximum = 489.5 (4 samples)
Flit latency average = 19.5274 (4 samples)
	minimum = 6 (4 samples)
	maximum = 488.25 (4 samples)
Fragmentation average = 0.092732 (4 samples)
	minimum = 0 (4 samples)
	maximum = 299.25 (4 samples)
Injected packet rate average = 0.0706092 (4 samples)
	minimum = 0.0486502 (4 samples)
	maximum = 0.084371 (4 samples)
Accepted packet rate average = 0.0706092 (4 samples)
	minimum = 0.0486502 (4 samples)
	maximum = 0.084371 (4 samples)
Injected flit rate average = 0.170001 (4 samples)
	minimum = 0.0783784 (4 samples)
	maximum = 0.259145 (4 samples)
Accepted flit rate average = 0.170001 (4 samples)
	minimum = 0.0982454 (4 samples)
	maximum = 0.247433 (4 samples)
Injected packet size average = 2.40764 (4 samples)
Accepted packet size average = 2.40764 (4 samples)
Hops average = 1 (4 samples)
----------------------------END-of-Interconnect-DETAILS-------------------------


gpgpu_simulation_time = 0 days, 0 hrs, 6 min, 54 sec (414 sec)
gpgpu_simulation_rate = 283656 (inst/sec)
gpgpu_simulation_rate = 1238 (cycle/sec)
event update

GPGPU-Sim PTX: cudaLaunch for 0x0x404030 (mode=performance simulation) on stream 0
GPGPU-Sim PTX: pushing kernel '_Z20histo_prescan_kernelPjiS_' to stream 0, gridDim= (64,1,1) blockDim = (512,1,1) 
####  CUstream_st::push: Start pushing kernel: histo_prescan_kernel  ####
####  CUstream_st::push: Repeated histo_prescan_kernel encountered  ####
####  CUstream_st::push: Closing stream ####
event update
event update

GPGPU-Sim PTX: cudaLaunch for 0x0x403cc0 (mode=performance simulation) on stream 0
GPGPU-Sim PTX: pushing kernel '_Z26histo_intermediates_kernelP5uint2jjjP6uchar4' to stream 0, gridDim= (65,1,1) blockDim = (498,1,1) 
event update

GPGPU-Sim PTX: cudaLaunch for 0x0x403ea0 (mode=performance simulation) on stream 0
GPGPU-Sim PTX: pushing kernel '_Z17histo_main_kernelP6uchar4jjjjjPjS1_S1_' to stream 0, gridDim= (14,2,1) blockDim = (768,1,1) 
event update

GPGPU-Sim PTX: cudaLaunch for 0x0x403b80 (mode=performance simulation) on stream 0
GPGPU-Sim PTX: pushing kernel '_Z18histo_final_kerneljjjjPjS_S_S_' to stream 0, gridDim= (42,1,1) blockDim = (512,1,1) 
event update

GPGPU-Sim PTX: cudaLaunch for 0x0x404030 (mode=performance simulation) on stream 0
GPGPU-Sim PTX: pushing kernel '_Z20histo_prescan_kernelPjiS_' to stream 0, gridDim= (64,1,1) blockDim = (512,1,1) 
event update
event update

GPGPU-Sim PTX: cudaLaunch for 0x0x403cc0 (mode=performance simulation) on stream 0
GPGPU-Sim PTX: pushing kernel '_Z26histo_intermediates_kernelP5uint2jjjP6uchar4' to stream 0, gridDim= (65,1,1) blockDim = (498,1,1) 
event update

GPGPU-Sim PTX: cudaLaunch for 0x0x403ea0 (mode=performance simulation) on stream 0
GPGPU-Sim PTX: pushing kernel '_Z17histo_main_kernelP6uchar4jjjjjPjS1_S1_' to stream 0, gridDim= (14,2,1) blockDim = (768,1,1) 
event update

GPGPU-Sim PTX: cudaLaunch for 0x0x403b80 (mode=performance simulation) on stream 0
GPGPU-Sim PTX: pushing kernel '_Z18histo_final_kerneljjjjPjS_S_S_' to stream 0, gridDim= (42,1,1) blockDim = (512,1,1) 
event update

GPGPU-Sim PTX: cudaLaunch for 0x0x404030 (mode=performance simulation) on stream 0
GPGPU-Sim PTX: pushing kernel '_Z20histo_prescan_kernelPjiS_' to stream 0, gridDim= (64,1,1) blockDim = (512,1,1) 
event update
event update

GPGPU-Sim PTX: cudaLaunch for 0x0x403cc0 (mode=performance simulation) on stream 0
GPGPU-Sim PTX: pushing kernel '_Z26histo_intermediates_kernelP5uint2jjjP6uchar4' to stream 0, gridDim= (65,1,1) blockDim = (498,1,1) 
event update

GPGPU-Sim PTX: cudaLaunch for 0x0x403ea0 (mode=performance simulation) on stream 0
GPGPU-Sim PTX: pushing kernel '_Z17histo_main_kernelP6uchar4jjjjjPjS1_S1_' to stream 0, gridDim= (14,2,1) blockDim = (768,1,1) 
event update

GPGPU-Sim PTX: cudaLaunch for 0x0x403b80 (mode=performance simulation) on stream 0
GPGPU-Sim PTX: pushing kernel '_Z18histo_final_kerneljjjjPjS_S_S_' to stream 0, gridDim= (42,1,1) blockDim = (512,1,1) 
event update

GPGPU-Sim PTX: cudaLaunch for 0x0x404030 (mode=performance simulation) on stream 0
GPGPU-Sim PTX: pushing kernel '_Z20histo_prescan_kernelPjiS_' to stream 0, gridDim= (64,1,1) blockDim = (512,1,1) 
event update
event update

GPGPU-Sim PTX: cudaLaunch for 0x0x403cc0 (mode=performance simulation) on stream 0
GPGPU-Sim PTX: pushing kernel '_Z26histo_intermediates_kernelP5uint2jjjP6uchar4' to stream 0, gridDim= (65,1,1) blockDim = (498,1,1) 
event update

GPGPU-Sim PTX: cudaLaunch for 0x0x403ea0 (mode=performance simulation) on stream 0
GPGPU-Sim PTX: pushing kernel '_Z17histo_main_kernelP6uchar4jjjjjPjS1_S1_' to stream 0, gridDim= (14,2,1) blockDim = (768,1,1) 
event update

GPGPU-Sim PTX: cudaLaunch for 0x0x403b80 (mode=performance simulation) on stream 0
GPGPU-Sim PTX: pushing kernel '_Z18histo_final_kerneljjjjPjS_S_S_' to stream 0, gridDim= (42,1,1) blockDim = (512,1,1) 
event update

GPGPU-Sim PTX: cudaLaunch for 0x0x404030 (mode=performance simulation) on stream 0
GPGPU-Sim PTX: pushing kernel '_Z20histo_prescan_kernelPjiS_' to stream 0, gridDim= (64,1,1) blockDim = (512,1,1) 
event update
event update

GPGPU-Sim PTX: cudaLaunch for 0x0x403cc0 (mode=performance simulation) on stream 0
GPGPU-Sim PTX: pushing kernel '_Z26histo_intermediates_kernelP5uint2jjjP6uchar4' to stream 0, gridDim= (65,1,1) blockDim = (498,1,1) 
event update

GPGPU-Sim PTX: cudaLaunch for 0x0x403ea0 (mode=performance simulation) on stream 0
GPGPU-Sim PTX: pushing kernel '_Z17histo_main_kernelP6uchar4jjjjjPjS1_S1_' to stream 0, gridDim= (14,2,1) blockDim = (768,1,1) 
event update

GPGPU-Sim PTX: cudaLaunch for 0x0x403b80 (mode=performance simulation) on stream 0
GPGPU-Sim PTX: pushing kernel '_Z18histo_final_kerneljjjjPjS_S_S_' to stream 0, gridDim= (42,1,1) blockDim = (512,1,1) 
event update

GPGPU-Sim PTX: cudaLaunch for 0x0x404030 (mode=performance simulation) on stream 0
GPGPU-Sim PTX: pushing kernel '_Z20histo_prescan_kernelPjiS_' to stream 0, gridDim= (64,1,1) blockDim = (512,1,1) 
event update
event update

GPGPU-Sim PTX: cudaLaunch for 0x0x403cc0 (mode=performance simulation) on stream 0
GPGPU-Sim PTX: pushing kernel '_Z26histo_intermediates_kernelP5uint2jjjP6uchar4' to stream 0, gridDim= (65,1,1) blockDim = (498,1,1) 
event update

GPGPU-Sim PTX: cudaLaunch for 0x0x403ea0 (mode=performance simulation) on stream 0
GPGPU-Sim PTX: pushing kernel '_Z17histo_main_kernelP6uchar4jjjjjPjS1_S1_' to stream 0, gridDim= (14,2,1) blockDim = (768,1,1) 
event update

GPGPU-Sim PTX: cudaLaunch for 0x0x403b80 (mode=performance simulation) on stream 0
GPGPU-Sim PTX: pushing kernel '_Z18histo_final_kerneljjjjPjS_S_S_' to stream 0, gridDim= (42,1,1) blockDim = (512,1,1) 
event update

GPGPU-Sim PTX: cudaLaunch for 0x0x404030 (mode=performance simulation) on stream 0
GPGPU-Sim PTX: pushing kernel '_Z20histo_prescan_kernelPjiS_' to stream 0, gridDim= (64,1,1) blockDim = (512,1,1) 
event update
event update

GPGPU-Sim PTX: cudaLaunch for 0x0x403cc0 (mode=performance simulation) on stream 0
GPGPU-Sim PTX: pushing kernel '_Z26histo_intermediates_kernelP5uint2jjjP6uchar4' to stream 0, gridDim= (65,1,1) blockDim = (498,1,1) 
event update

GPGPU-Sim PTX: cudaLaunch for 0x0x403ea0 (mode=performance simulation) on stream 0
GPGPU-Sim PTX: pushing kernel '_Z17histo_main_kernelP6uchar4jjjjjPjS1_S1_' to stream 0, gridDim= (14,2,1) blockDim = (768,1,1) 
event update

GPGPU-Sim PTX: cudaLaunch for 0x0x403b80 (mode=performance simulation) on stream 0
GPGPU-Sim PTX: pushing kernel '_Z18histo_final_kerneljjjjPjS_S_S_' to stream 0, gridDim= (42,1,1) blockDim = (512,1,1) 
event update

GPGPU-Sim PTX: cudaLaunch for 0x0x404030 (mode=performance simulation) on stream 0
GPGPU-Sim PTX: pushing kernel '_Z20histo_prescan_kernelPjiS_' to stream 0, gridDim= (64,1,1) blockDim = (512,1,1) 
event update
event update

GPGPU-Sim PTX: cudaLaunch for 0x0x403cc0 (mode=performance simulation) on stream 0
GPGPU-Sim PTX: pushing kernel '_Z26histo_intermediates_kernelP5uint2jjjP6uchar4' to stream 0, gridDim= (65,1,1) blockDim = (498,1,1) 
event update

GPGPU-Sim PTX: cudaLaunch for 0x0x403ea0 (mode=performance simulation) on stream 0
GPGPU-Sim PTX: pushing kernel '_Z17histo_main_kernelP6uchar4jjjjjPjS1_S1_' to stream 0, gridDim= (14,2,1) blockDim = (768,1,1) 
event update

GPGPU-Sim PTX: cudaLaunch for 0x0x403b80 (mode=performance simulation) on stream 0
GPGPU-Sim PTX: pushing kernel '_Z18histo_final_kerneljjjjPjS_S_S_' to stream 0, gridDim= (42,1,1) blockDim = (512,1,1) 
event update

GPGPU-Sim PTX: cudaLaunch for 0x0x404030 (mode=performance simulation) on stream 0
GPGPU-Sim PTX: pushing kernel '_Z20histo_prescan_kernelPjiS_' to stream 0, gridDim= (64,1,1) blockDim = (512,1,1) 
event update
event update

GPGPU-Sim PTX: cudaLaunch for 0x0x403cc0 (mode=performance simulation) on stream 0
GPGPU-Sim PTX: pushing kernel '_Z26histo_intermediates_kernelP5uint2jjjP6uchar4' to stream 0, gridDim= (65,1,1) blockDim = (498,1,1) 
event update

GPGPU-Sim PTX: cudaLaunch for 0x0x403ea0 (mode=performance simulation) on stream 0
GPGPU-Sim PTX: pushing kernel '_Z17histo_main_kernelP6uchar4jjjjjPjS1_S1_' to stream 0, gridDim= (14,2,1) blockDim = (768,1,1) 
event update

GPGPU-Sim PTX: cudaLaunch for 0x0x403b80 (mode=performance simulation) on stream 0
GPGPU-Sim PTX: pushing kernel '_Z18histo_final_kerneljjjjPjS_S_S_' to stream 0, gridDim= (42,1,1) blockDim = (512,1,1) 
event update

GPGPU-Sim PTX: cudaLaunch for 0x0x404030 (mode=performance simulation) on stream 0
GPGPU-Sim PTX: pushing kernel '_Z20histo_prescan_kernelPjiS_' to stream 0, gridDim= (64,1,1) blockDim = (512,1,1) 
event update
event update

GPGPU-Sim PTX: cudaLaunch for 0x0x403cc0 (mode=performance simulation) on stream 0
GPGPU-Sim PTX: pushing kernel '_Z26histo_intermediates_kernelP5uint2jjjP6uchar4' to stream 0, gridDim= (65,1,1) blockDim = (498,1,1) 
event update

GPGPU-Sim PTX: cudaLaunch for 0x0x403ea0 (mode=performance simulation) on stream 0
GPGPU-Sim PTX: pushing kernel '_Z17histo_main_kernelP6uchar4jjjjjPjS1_S1_' to stream 0, gridDim= (14,2,1) blockDim = (768,1,1) 
event update

GPGPU-Sim PTX: cudaLaunch for 0x0x403b80 (mode=performance simulation) on stream 0
GPGPU-Sim PTX: pushing kernel '_Z18histo_final_kerneljjjjPjS_S_S_' to stream 0, gridDim= (42,1,1) blockDim = (512,1,1) 
event update

GPGPU-Sim PTX: cudaLaunch for 0x0x404030 (mode=performance simulation) on stream 0
GPGPU-Sim PTX: pushing kernel '_Z20histo_prescan_kernelPjiS_' to stream 0, gridDim= (64,1,1) blockDim = (512,1,1) 
event update
event update

GPGPU-Sim PTX: cudaLaunch for 0x0x403cc0 (mode=performance simulation) on stream 0
GPGPU-Sim PTX: pushing kernel '_Z26histo_intermediates_kernelP5uint2jjjP6uchar4' to stream 0, gridDim= (65,1,1) blockDim = (498,1,1) 
event update

GPGPU-Sim PTX: cudaLaunch for 0x0x403ea0 (mode=performance simulation) on stream 0
GPGPU-Sim PTX: pushing kernel '_Z17histo_main_kernelP6uchar4jjjjjPjS1_S1_' to stream 0, gridDim= (14,2,1) blockDim = (768,1,1) 
event update

GPGPU-Sim PTX: cudaLaunch for 0x0x403b80 (mode=performance simulation) on stream 0
GPGPU-Sim PTX: pushing kernel '_Z18histo_final_kerneljjjjPjS_S_S_' to stream 0, gridDim= (42,1,1) blockDim = (512,1,1) 
event update

GPGPU-Sim PTX: cudaLaunch for 0x0x404030 (mode=performance simulation) on stream 0
GPGPU-Sim PTX: pushing kernel '_Z20histo_prescan_kernelPjiS_' to stream 0, gridDim= (64,1,1) blockDim = (512,1,1) 
event update
event update

GPGPU-Sim PTX: cudaLaunch for 0x0x403cc0 (mode=performance simulation) on stream 0
GPGPU-Sim PTX: pushing kernel '_Z26histo_intermediates_kernelP5uint2jjjP6uchar4' to stream 0, gridDim= (65,1,1) blockDim = (498,1,1) 
event update

GPGPU-Sim PTX: cudaLaunch for 0x0x403ea0 (mode=performance simulation) on stream 0
GPGPU-Sim PTX: pushing kernel '_Z17histo_main_kernelP6uchar4jjjjjPjS1_S1_' to stream 0, gridDim= (14,2,1) blockDim = (768,1,1) 
event update

GPGPU-Sim PTX: cudaLaunch for 0x0x403b80 (mode=performance simulation) on stream 0
GPGPU-Sim PTX: pushing kernel '_Z18histo_final_kerneljjjjPjS_S_S_' to stream 0, gridDim= (42,1,1) blockDim = (512,1,1) 
event update

GPGPU-Sim PTX: cudaLaunch for 0x0x404030 (mode=performance simulation) on stream 0
GPGPU-Sim PTX: pushing kernel '_Z20histo_prescan_kernelPjiS_' to stream 0, gridDim= (64,1,1) blockDim = (512,1,1) 
event update
event update

GPGPU-Sim PTX: cudaLaunch for 0x0x403cc0 (mode=performance simulation) on stream 0
GPGPU-Sim PTX: pushing kernel '_Z26histo_intermediates_kernelP5uint2jjjP6uchar4' to stream 0, gridDim= (65,1,1) blockDim = (498,1,1) 
event update

GPGPU-Sim PTX: cudaLaunch for 0x0x403ea0 (mode=performance simulation) on stream 0
GPGPU-Sim PTX: pushing kernel '_Z17histo_main_kernelP6uchar4jjjjjPjS1_S1_' to stream 0, gridDim= (14,2,1) blockDim = (768,1,1) 
event update

GPGPU-Sim PTX: cudaLaunch for 0x0x403b80 (mode=performance simulation) on stream 0
GPGPU-Sim PTX: pushing kernel '_Z18histo_final_kerneljjjjPjS_S_S_' to stream 0, gridDim= (42,1,1) blockDim = (512,1,1) 
event update

GPGPU-Sim PTX: cudaLaunch for 0x0x404030 (mode=performance simulation) on stream 0
GPGPU-Sim PTX: pushing kernel '_Z20histo_prescan_kernelPjiS_' to stream 0, gridDim= (64,1,1) blockDim = (512,1,1) 
event update
event update

GPGPU-Sim PTX: cudaLaunch for 0x0x403cc0 (mode=performance simulation) on stream 0
GPGPU-Sim PTX: pushing kernel '_Z26histo_intermediates_kernelP5uint2jjjP6uchar4' to stream 0, gridDim= (65,1,1) blockDim = (498,1,1) 
event update

GPGPU-Sim PTX: cudaLaunch for 0x0x403ea0 (mode=performance simulation) on stream 0
GPGPU-Sim PTX: pushing kernel '_Z17histo_main_kernelP6uchar4jjjjjPjS1_S1_' to stream 0, gridDim= (14,2,1) blockDim = (768,1,1) 
event update

GPGPU-Sim PTX: cudaLaunch for 0x0x403b80 (mode=performance simulation) on stream 0
GPGPU-Sim PTX: pushing kernel '_Z18histo_final_kerneljjjjPjS_S_S_' to stream 0, gridDim= (42,1,1) blockDim = (512,1,1) 
event update

GPGPU-Sim PTX: cudaLaunch for 0x0x404030 (mode=performance simulation) on stream 0
GPGPU-Sim PTX: pushing kernel '_Z20histo_prescan_kernelPjiS_' to stream 0, gridDim= (64,1,1) blockDim = (512,1,1) 
event update
event update

GPGPU-Sim PTX: cudaLaunch for 0x0x403cc0 (mode=performance simulation) on stream 0
GPGPU-Sim PTX: pushing kernel '_Z26histo_intermediates_kernelP5uint2jjjP6uchar4' to stream 0, gridDim= (65,1,1) blockDim = (498,1,1) 
event update

GPGPU-Sim PTX: cudaLaunch for 0x0x403ea0 (mode=performance simulation) on stream 0
GPGPU-Sim PTX: pushing kernel '_Z17histo_main_kernelP6uchar4jjjjjPjS1_S1_' to stream 0, gridDim= (14,2,1) blockDim = (768,1,1) 
event update

GPGPU-Sim PTX: cudaLaunch for 0x0x403b80 (mode=performance simulation) on stream 0
GPGPU-Sim PTX: pushing kernel '_Z18histo_final_kerneljjjjPjS_S_S_' to stream 0, gridDim= (42,1,1) blockDim = (512,1,1) 
event update

GPGPU-Sim PTX: cudaLaunch for 0x0x404030 (mode=performance simulation) on stream 0
GPGPU-Sim PTX: pushing kernel '_Z20histo_prescan_kernelPjiS_' to stream 0, gridDim= (64,1,1) blockDim = (512,1,1) 
event update
event update

GPGPU-Sim PTX: cudaLaunch for 0x0x403cc0 (mode=performance simulation) on stream 0
GPGPU-Sim PTX: pushing kernel '_Z26histo_intermediates_kernelP5uint2jjjP6uchar4' to stream 0, gridDim= (65,1,1) blockDim = (498,1,1) 
event update

GPGPU-Sim PTX: cudaLaunch for 0x0x403ea0 (mode=performance simulation) on stream 0
GPGPU-Sim PTX: pushing kernel '_Z17histo_main_kernelP6uchar4jjjjjPjS1_S1_' to stream 0, gridDim= (14,2,1) blockDim = (768,1,1) 
event update

GPGPU-Sim PTX: cudaLaunch for 0x0x403b80 (mode=performance simulation) on stream 0
GPGPU-Sim PTX: pushing kernel '_Z18histo_final_kerneljjjjPjS_S_S_' to stream 0, gridDim= (42,1,1) blockDim = (512,1,1) 
event update

GPGPU-Sim PTX: cudaLaunch for 0x0x404030 (mode=performance simulation) on stream 0
GPGPU-Sim PTX: pushing kernel '_Z20histo_prescan_kernelPjiS_' to stream 0, gridDim= (64,1,1) blockDim = (512,1,1) 
event update
event update

GPGPU-Sim PTX: cudaLaunch for 0x0x403cc0 (mode=performance simulation) on stream 0
GPGPU-Sim PTX: pushing kernel '_Z26histo_intermediates_kernelP5uint2jjjP6uchar4' to stream 0, gridDim= (65,1,1) blockDim = (498,1,1) 
event update

GPGPU-Sim PTX: cudaLaunch for 0x0x403ea0 (mode=performance simulation) on stream 0
GPGPU-Sim PTX: pushing kernel '_Z17histo_main_kernelP6uchar4jjjjjPjS1_S1_' to stream 0, gridDim= (14,2,1) blockDim = (768,1,1) 
event update

GPGPU-Sim PTX: cudaLaunch for 0x0x403b80 (mode=performance simulation) on stream 0
GPGPU-Sim PTX: pushing kernel '_Z18histo_final_kerneljjjjPjS_S_S_' to stream 0, gridDim= (42,1,1) blockDim = (512,1,1) 
event update

GPGPU-Sim PTX: cudaLaunch for 0x0x404030 (mode=performance simulation) on stream 0
GPGPU-Sim PTX: pushing kernel '_Z20histo_prescan_kernelPjiS_' to stream 0, gridDim= (64,1,1) blockDim = (512,1,1) 
event update
event update

GPGPU-Sim PTX: cudaLaunch for 0x0x403cc0 (mode=performance simulation) on stream 0
GPGPU-Sim PTX: pushing kernel '_Z26histo_intermediates_kernelP5uint2jjjP6uchar4' to stream 0, gridDim= (65,1,1) blockDim = (498,1,1) 
event update

GPGPU-Sim PTX: cudaLaunch for 0x0x403ea0 (mode=performance simulation) on stream 0
GPGPU-Sim PTX: pushing kernel '_Z17histo_main_kernelP6uchar4jjjjjPjS1_S1_' to stream 0, gridDim= (14,2,1) blockDim = (768,1,1) 
event update

GPGPU-Sim PTX: cudaLaunch for 0x0x403b80 (mode=performance simulation) on stream 0
GPGPU-Sim PTX: pushing kernel '_Z18histo_final_kerneljjjjPjS_S_S_' to stream 0, gridDim= (42,1,1) blockDim = (512,1,1) 
event update

GPGPU-Sim PTX: cudaLaunch for 0x0x404030 (mode=performance simulation) on stream 0
GPGPU-Sim PTX: pushing kernel '_Z20histo_prescan_kernelPjiS_' to stream 0, gridDim= (64,1,1) blockDim = (512,1,1) 
event update
event update

GPGPU-Sim PTX: cudaLaunch for 0x0x403cc0 (mode=performance simulation) on stream 0
GPGPU-Sim PTX: pushing kernel '_Z26histo_intermediates_kernelP5uint2jjjP6uchar4' to stream 0, gridDim= (65,1,1) blockDim = (498,1,1) 
event update

GPGPU-Sim PTX: cudaLaunch for 0x0x403ea0 (mode=performance simulation) on stream 0
GPGPU-Sim PTX: pushing kernel '_Z17histo_main_kernelP6uchar4jjjjjPjS1_S1_' to stream 0, gridDim= (14,2,1) blockDim = (768,1,1) 
event update

GPGPU-Sim PTX: cudaLaunch for 0x0x403b80 (mode=performance simulation) on stream 0
GPGPU-Sim PTX: pushing kernel '_Z18histo_final_kerneljjjjPjS_S_S_' to stream 0, gridDim= (42,1,1) blockDim = (512,1,1) 
event update
