

        *** GPGPU-Sim Simulator Version 3.2.2  [build 0] ***


GPGPU-Sim PTX: simulation mode 0 (can change with PTX_SIM_MODE_FUNC environment variable:
               1=functional simulation only, 0=detailed performance simulator)
GPGPU-Sim: Configuration options:

-network_mode                           1 # Interconnection network mode
-inter_config_file   config_fermi_islip.icnt # Interconnection network config file
-gpgpu_ptx_use_cuobjdump                    1 # Use cuobjdump to extract ptx and sass from binaries
-gpgpu_experimental_lib_support                    0 # Try to extract code from cuda libraries [Broken because of unknown cudaGetExportTable]
-gpgpu_ptx_convert_to_ptxplus                    0 # Convert SASS (native ISA) to ptxplus and run ptxplus
-gpgpu_ptx_force_max_capability                   20 # Force maximum compute capability
-gpgpu_ptx_inst_debug_to_file                    0 # Dump executed instructions' debug information to file
-gpgpu_ptx_inst_debug_file       inst_debug.txt # Executed instructions' debug output file
-gpgpu_ptx_inst_debug_thread_uid                    1 # Thread UID for executed instructions' debug output
-gpgpu_simd_model                       1 # 1 = post-dominator
-gpgpu_shader_core_pipeline              1536:32 # shader core pipeline config, i.e., {<nthread>:<warpsize>}
-gpgpu_tex_cache:l1  4:128:24,L:R:m:N:L,F:128:4,128:2 # per-shader L1 texture cache  (READ-ONLY) config  {<nsets>:<bsize>:<assoc>,<rep>:<wr>:<alloc>:<wr_alloc>,<mshr>:<N>:<merge>,<mq>:<rf>}
-gpgpu_const_cache:l1 64:64:2,L:R:f:N:L,A:2:32,4 # per-shader L1 constant memory cache  (READ-ONLY) config  {<nsets>:<bsize>:<assoc>,<rep>:<wr>:<alloc>:<wr_alloc>,<mshr>:<N>:<merge>,<mq>} 
-gpgpu_cache:il1     4:128:4,L:R:f:N:L,A:2:32,4 # shader L1 instruction cache config  {<nsets>:<bsize>:<assoc>,<rep>:<wr>:<alloc>:<wr_alloc>,<mshr>:<N>:<merge>,<mq>} 
-gpgpu_cache:dl1     32:128:4,L:L:m:N:H,A:32:8,8 # per-shader L1 data cache config  {<nsets>:<bsize>:<assoc>,<rep>:<wr>:<alloc>:<wr_alloc>,<mshr>:<N>:<merge>,<mq> | none}
-gpgpu_cache:dl1PrefL1                 none # per-shader L1 data cache config  {<nsets>:<bsize>:<assoc>,<rep>:<wr>:<alloc>:<wr_alloc>,<mshr>:<N>:<merge>,<mq> | none}
-gpgpu_cache:dl1PreShared                 none # per-shader L1 data cache config  {<nsets>:<bsize>:<assoc>,<rep>:<wr>:<alloc>:<wr_alloc>,<mshr>:<N>:<merge>,<mq> | none}
-gmem_skip_L1D                          0 # global memory access skip L1D cache (implements -Xptxas -dlcm=cg, default=no skip)
-gpgpu_perfect_mem                      0 # enable perfect memory mode (no cache miss)
-n_regfile_gating_group                    4 # group of lanes that should be read/written together)
-gpgpu_clock_gated_reg_file                    0 # enable clock gated reg file for power calculations
-gpgpu_clock_gated_lanes                    0 # enable clock gated lanes for power calculations
-gpgpu_shader_registers                32768 # Number of registers per shader core. Limits number of concurrent CTAs. (default 8192)
-gpgpu_shader_cta                       8 # Maximum number of concurrent CTAs in shader (default 8)
-gpgpu_num_cta_barriers                   16 # Maximum number of named barriers per CTA (default 16)
-gpgpu_n_clusters                      15 # number of processing clusters
-gpgpu_n_cores_per_cluster                    1 # number of simd cores per cluster
-gpgpu_n_cluster_ejection_buffer_size                    8 # number of packets in ejection buffer
-gpgpu_n_ldst_response_buffer_size                    2 # number of response packets in ld/st unit ejection buffer
-gpgpu_shmem_size                   16384 # Size of shared memory per shader core (default 16kB)
-gpgpu_shmem_size                   49152 # Size of shared memory per shader core (default 16kB)
-gpgpu_shmem_size_PrefL1                16384 # Size of shared memory per shader core (default 16kB)
-gpgpu_shmem_size_PrefShared                16384 # Size of shared memory per shader core (default 16kB)
-gpgpu_shmem_num_banks                   32 # Number of banks in the shared memory in each shader core (default 16)
-gpgpu_shmem_limited_broadcast                    0 # Limit shared memory to do one broadcast per cycle (default on)
-gpgpu_shmem_warp_parts                    1 # Number of portions a warp is divided into for shared memory bank conflict check 
-gpgpu_warpdistro_shader                   -1 # Specify which shader core to collect the warp size distribution from
-gpgpu_warp_issue_shader                    0 # Specify which shader core to collect the warp issue distribution from
-gpgpu_local_mem_map                    1 # Mapping from local memory space address to simulated GPU physical address space (default = enabled)
-gpgpu_num_reg_banks                   16 # Number of register banks (default = 8)
-gpgpu_reg_bank_use_warp_id                    0 # Use warp ID in mapping registers to banks (default = off)
-gpgpu_operand_collector_num_units_sp                    6 # number of collector units (default = 4)
-gpgpu_operand_collector_num_units_sfu                    8 # number of collector units (default = 4)
-gpgpu_operand_collector_num_units_mem                    2 # number of collector units (default = 2)
-gpgpu_operand_collector_num_units_gen                    0 # number of collector units (default = 0)
-gpgpu_operand_collector_num_in_ports_sp                    2 # number of collector unit in ports (default = 1)
-gpgpu_operand_collector_num_in_ports_sfu                    1 # number of collector unit in ports (default = 1)
-gpgpu_operand_collector_num_in_ports_mem                    1 # number of collector unit in ports (default = 1)
-gpgpu_operand_collector_num_in_ports_gen                    0 # number of collector unit in ports (default = 0)
-gpgpu_operand_collector_num_out_ports_sp                    2 # number of collector unit in ports (default = 1)
-gpgpu_operand_collector_num_out_ports_sfu                    1 # number of collector unit in ports (default = 1)
-gpgpu_operand_collector_num_out_ports_mem                    1 # number of collector unit in ports (default = 1)
-gpgpu_operand_collector_num_out_ports_gen                    0 # number of collector unit in ports (default = 0)
-gpgpu_coalesce_arch                   13 # Coalescing arch (default = 13, anything else is off for now)
-gpgpu_num_sched_per_core                    2 # Number of warp schedulers per core
-gpgpu_max_insn_issue_per_warp                    1 # Max number of instructions that can be issued per warp in one cycle by scheduler
-gpgpu_simt_core_sim_order                    1 # Select the simulation order of cores in a cluster (0=Fix, 1=Round-Robin)
-gpgpu_pipeline_widths        2,1,1,2,1,1,2 # Pipeline widths ID_OC_SP,ID_OC_SFU,ID_OC_MEM,OC_EX_SP,OC_EX_SFU,OC_EX_MEM,EX_WB
-gpgpu_num_sp_units                     2 # Number of SP units (default=1)
-gpgpu_num_sfu_units                    1 # Number of SF units (default=1)
-gpgpu_num_mem_units                    1 # Number if ldst units (default=1) WARNING: not hooked up to anything
-gpgpu_scheduler                      lrr # Scheduler configuration: < lrr | gto | two_level_active > If two_level_active:<num_active_warps>:<inner_prioritization>:<outer_prioritization>For complete list of prioritization values see shader.h enum scheduler_prioritization_typeDefault: gto
-gpgpu_dram_scheduler                    1 # 0 = fifo, 1 = FR-FCFS (defaul)
-gpgpu_dram_partition_queues              8:8:8:8 # i2$:$2d:d2$:$2i
-l2_ideal                               0 # Use a ideal L2 cache that always hit
-gpgpu_cache:dl2     64:128:8,L:B:m:W:L,A:32:4,4:0,32 # unified banked L2 data cache config  {<nsets>:<bsize>:<assoc>,<rep>:<wr>:<alloc>:<wr_alloc>,<mshr>:<N>:<merge>,<mq>}
-gpgpu_cache:dl2_texture_only                    0 # L2 cache used for texture only
-gpgpu_n_mem                            6 # number of memory modules (e.g. memory controllers) in gpu
-gpgpu_n_sub_partition_per_mchannel                    2 # number of memory subpartition in each memory module
-gpgpu_n_mem_per_ctrlr                    2 # number of memory chips per memory controller
-gpgpu_memlatency_stat                   14 # track and display latency statistics 0x2 enables MC, 0x4 enables queue logs
-gpgpu_frfcfs_dram_sched_queue_size                   16 # 0 = unlimited (default); # entries per chip
-gpgpu_dram_return_queue_size                  116 # 0 = unlimited (default); # entries per chip
-gpgpu_dram_buswidth                    4 # default = 4 bytes (8 bytes per cycle at DDR)
-gpgpu_dram_burst_length                    8 # Burst length of each DRAM request (default = 4 data bus cycle)
-dram_data_command_freq_ratio                    4 # Frequency ratio between DRAM data bus and command bus (default = 2 times, i.e. DDR)
-gpgpu_dram_timing_opt nbk=16:CCD=2:RRD=6:RCD=12:RAS=28:RP=12:RC=40: CL=12:WL=4:CDLR=5:WR=12:nbkgrp=4:CCDL=3:RTPL=2 # DRAM timing parameters = {nbk:tCCD:tRRD:tRCD:tRAS:tRP:tRC:CL:WL:tCDLR:tWR:nbkgrp:tCCDL:tRTPL}
-rop_latency                          120 # ROP queue latency (default 85)
-dram_latency                         100 # DRAM latency (default 30)
-gpgpu_mem_addr_mapping dramid@8;00000000.00000000.00000000.00000000.0000RRRR.RRRRRRRR.BBBCCCCB.CCSSSSSS # mapping memory address to dram model {dramid@<start bit>;<memory address map>}
-gpgpu_mem_addr_test                    0 # run sweep test to check address mapping for aliased address
-gpgpu_mem_address_mask                    1 # 0 = old addressing mask, 1 = new addressing mask, 2 = new add. mask + flipped bank sel and chip sel bits
-gpuwattch_xml_file  gpuwattch_gtx480.xml # GPUWattch XML file
-power_simulation_enabled                    0 # Turn on power simulator (1=On, 0=Off)
-power_per_cycle_dump                    0 # Dump detailed power output each cycle
-power_trace_enabled                    0 # produce a file for the power trace (1=On, 0=Off)
-power_trace_zlevel                     6 # Compression level of the power trace output log (0=no comp, 9=highest)
-steady_power_levels_enabled                    0 # produce a file for the steady power levels (1=On, 0=Off)
-steady_state_definition                  8:4 # allowed deviation:number of samples
-gpgpu_max_cycle                        0 # terminates gpu simulation early (0 = no limit)
-gpgpu_max_insn                         0 # terminates gpu simulation early (0 = no limit)
-gpgpu_max_cta                          0 # terminates gpu simulation early (0 = no limit)
-gpgpu_runtime_stat             500000000 # display runtime statistics such as dram utilization {<freq>:<flag>}
-liveness_message_freq                    1 # Minimum number of seconds between simulation liveness messages (0 = always print)
-gpgpu_flush_l1_cache                    0 # Flush L1 cache at the end of each kernel call
-gpgpu_flush_l2_cache                    0 # Flush L2 cache at the end of each kernel call
-gpgpu_deadlock_detect                    1 # Stop the simulation at deadlock (1=on (default), 0=off)
-gpgpu_ptx_instruction_classification                    0 # if enabled will classify ptx instruction types per kernel (Max 255 kernels now)
-gpgpu_ptx_sim_mode                     0 # Select between Performance (default) or Functional simulation (1)
-gpgpu_clock_domains 730.0:730.0:730.0:950.0 # Clock Domain Frequencies in MhZ {<Core Clock>:<ICNT Clock>:<L2 Clock>:<DRAM Clock>}
-gpgpu_max_concurrent_kernel                    8 # maximum kernels that can run concurrently on GPU
-gpgpu_cflog_interval                    0 # Interval between each snapshot in control flow logger
-visualizer_enabled                     0 # Turn on visualizer output (1=On, 0=Off)
-visualizer_outputfile                 NULL # Specifies the output log file for visualizer
-visualizer_zlevel                      6 # Compression level of the visualizer output log (0=no comp, 9=highest)
-trace_enabled                          0 # Turn on traces
-trace_components                    none # comma seperated list of traces to enable. Complete list found in trace_streams.tup. Default none
-trace_sampling_core                    0 # The core which is printed using CORE_DPRINTF. Default 0
-trace_sampling_memory_partition                   -1 # The memory partition which is printed using MEMPART_DPRINTF. Default -1 (i.e. all)
-enable_ptx_file_line_stats                    0 # Turn on PTX source line statistic profiling. (1 = On)
-ptx_line_stats_filename gpgpu_inst_stats.txt # Output file for PTX source line statistics.
-save_embedded_ptx                      0 # saves ptx files embedded in binary as <n>.ptx
-keep                                   0 # keep intermediate files created by GPGPU-Sim when interfacing with external programs
-gpgpu_ptx_save_converted_ptxplus                    0 # Saved converted ptxplus to a file
-ptx_opcode_latency_int         4,13,4,5,145 # Opcode latencies for integers <ADD,MAX,MUL,MAD,DIV>Default 1,1,19,25,145
-ptx_opcode_latency_fp          4,13,4,5,39 # Opcode latencies for single precision floating points <ADD,MAX,MUL,MAD,DIV>Default 1,1,1,1,30
-ptx_opcode_latency_dp         8,19,8,8,330 # Opcode latencies for double precision floating points <ADD,MAX,MUL,MAD,DIV>Default 8,8,8,8,335
-ptx_opcode_initiation_int            1,2,2,1,8 # Opcode initiation intervals for integers <ADD,MAX,MUL,MAD,DIV>Default 1,1,4,4,32
-ptx_opcode_initiation_fp            1,2,1,1,4 # Opcode initiation intervals for single precision floating points <ADD,MAX,MUL,MAD,DIV>Default 1,1,1,1,5
-ptx_opcode_initiation_dp         8,16,8,8,130 # Opcode initiation intervals for double precision floating points <ADD,MAX,MUL,MAD,DIV>Default 8,8,8,8,130
DRAM Timing Options:
nbk                                    16 # number of banks
CCD                                     2 # column to column delay
RRD                                     6 # minimal delay between activation of rows in different banks
RCD                                    12 # row to column delay
RAS                                    28 # time needed to activate row
RP                                     12 # time needed to precharge (deactivate) row
RC                                     40 # row cycle time
CDLR                                    5 # switching from write to read (changes tWTR)
WR                                     12 # last data-in to row precharge
CL                                     12 # CAS latency
WL                                      4 # Write latency
nbkgrp                                  4 # number of bank groups
CCDL                                    3 # column to column delay between accesses to different bank groups
RTPL                                    2 # read to precharge delay between accesses to different bank groups
Total number of memory sub partition = 12
addr_dec_mask[CHIP]  = 0000000000000000 	high:64 low:0
addr_dec_mask[BK]    = 000000000000e100 	high:16 low:8
addr_dec_mask[ROW]   = 000000000fff0000 	high:28 low:16
addr_dec_mask[COL]   = 0000000000001eff 	high:13 low:0
addr_dec_mask[BURST] = 000000000000003f 	high:6 low:0
sub_partition_id_mask = 0000000000000100
GPGPU-Sim uArch: clock freqs: 730000000.000000:730000000.000000:730000000.000000:950000000.000000
GPGPU-Sim uArch: clock periods: 0.00000000136986301370:0.00000000136986301370:0.00000000136986301370:0.00000000105263157895
*** Initializing Memory Statistics ***
GPGPU-Sim uArch: interconnect node map (shaderID+MemID to icntID)
GPGPU-Sim uArch: Memory nodes ID start from index: 15
GPGPU-Sim uArch:    0   1   2   3   4
GPGPU-Sim uArch:    5   6   7   8   9
GPGPU-Sim uArch:   10  11  12  13  14
GPGPU-Sim uArch:   15  16  17  18  19
GPGPU-Sim uArch:   20  21  22  23  24
GPGPU-Sim uArch:   25  26
GPGPU-Sim uArch: interconnect node reverse map (icntID to shaderID+MemID)
GPGPU-Sim uArch: Memory nodes start from ID: 15
GPGPU-Sim uArch:    0   1   2   3   4
GPGPU-Sim uArch:    5   6   7   8   9
GPGPU-Sim uArch:   10  11  12  13  14
GPGPU-Sim uArch:   15  16  17  18  19
GPGPU-Sim uArch:   20  21  22  23  24
GPGPU-Sim uArch:   25  26
ca24e2ad569ea2f401bff3595ddc90cb  /home/z/Workspace/model_gpu_cache/build/lbm_sim
GPGPU-Sim uArch: performance model initialization complete.
GPGPU-Sim PTX: __cudaRegisterFatBinary, fat_cubin_handle = 1, filename=lbm.cu
self exe links to: /home/z/Workspace/model_gpu_cache/build/lbm_sim
Running md5sum using "md5sum /home/z/Workspace/model_gpu_cache/build/lbm_sim "
Running cuobjdump using "$CUDA_INSTALL_PATH/bin/cuobjdump -ptx -elf -sass /home/z/Workspace/model_gpu_cache/build/lbm_sim > _cuobjdump_complete_output_gdT50F"
Parsing file _cuobjdump_complete_output_gdT50F
######### cuobjdump parser ########
## Adding new section ELF
Adding arch: sm_20
Adding identifier: lbm.cu
## Adding new section PTX
Adding ptx filename: _cuobjdump_1.ptx
Adding arch: sm_20
Adding identifier: lbm.cu
Done parsing!!!
GPGPU-Sim PTX: __cudaRegisterFunction _Z27performStreamCollide_kernelPfS_ : hostFun 0x0x4045e0, fat_cubin_handle = 1
GPGPU-Sim PTX: instruction assembly for function '_Z27performStreamCollide_kernelPfS_'...   done.
GPGPU-Sim PTX: finding reconvergence points for '_Z27performStreamCollide_kernelPfS_'...
GPGPU-Sim PTX: Finding dominators for '_Z27performStreamCollide_kernelPfS_'...
GPGPU-Sim PTX: Finding immediate dominators for '_Z27performStreamCollide_kernelPfS_'...
GPGPU-Sim PTX: Finding postdominators for '_Z27performStreamCollide_kernelPfS_'...
GPGPU-Sim PTX: Finding immediate postdominators for '_Z27performStreamCollide_kernelPfS_'...
GPGPU-Sim PTX: pre-decoding instructions for '_Z27performStreamCollide_kernelPfS_'...
GPGPU-Sim PTX: reconvergence points for _Z27performStreamCollide_kernelPfS_...
GPGPU-Sim PTX:  1 (potential) branch divergence @  PC=0x118 (_1.ptx:115) @%p1 bra $Lt_0_2050;
GPGPU-Sim PTX:    immediate post dominator      @  PC=0x8e0 (_1.ptx:400) ld.param.u64 %rd6, [__cudaparm__Z27performStreamCollide_kernelPfS__dstGrid];
GPGPU-Sim PTX:  2 (potential) branch divergence @  PC=0x1b0 (_1.ptx:143) bra.uni $Lt_0_1794;
GPGPU-Sim PTX:    immediate post dominator      @  PC=0x8e0 (_1.ptx:400) ld.param.u64 %rd6, [__cudaparm__Z27performStreamCollide_kernelPfS__dstGrid];
GPGPU-Sim PTX:  3 (potential) branch divergence @  PC=0x350 (_1.ptx:200) @%p2 bra $Lt_0_2306;
GPGPU-Sim PTX:    immediate post dominator      @  PC=0x370 (_1.ptx:206) mul.f32 %f77, %f66, %f66;
GPGPU-Sim PTX: ... end of reconvergence points for _Z27performStreamCollide_kernelPfS_
GPGPU-Sim PTX: ... done pre-decoding instructions for '_Z27performStreamCollide_kernelPfS_'.
GPGPU-Sim PTX: finished parsing EMBEDDED .ptx file _1.ptx
Adding _cuobjdump_1.ptx with cubin handle 1
GPGPU-Sim PTX: extracting embedded .ptx to temporary file "_ptx_JEjKiW"
Running: cat _ptx_JEjKiW | sed 's/.version 1.5/.version 1.4/' | sed 's/, texmode_independent//' | sed 's/\(\.extern \.const\[1\] .b8 \w\+\)\[\]/\1\[1\]/' | sed 's/const\[.\]/const\[0\]/g' > _ptx2_M4VpAc
GPGPU-Sim PTX: generating ptxinfo using "$CUDA_INSTALL_PATH/bin/ptxas --gpu-name=sm_20 -v _ptx2_M4VpAc --output-file  /dev/null 2> _ptx_JEjKiWinfo"
GPGPU-Sim PTX: Kernel '_Z27performStreamCollide_kernelPfS_' : regs=37, lmem=0, smem=0, cmem=60
GPGPU-Sim PTX: removing ptxinfo using "rm -f _ptx_JEjKiW _ptx2_M4VpAc _ptx_JEjKiWinfo"
GPGPU-Sim PTX: loading globals with explicit initializers... 
GPGPU-Sim PTX: finished loading globals (0 bytes total).
GPGPU-Sim PTX: loading constants with explicit initializers...  done.
LBM_allocateGrid: allocated 185.2 MByte
MAIN_printInfo:
	grid size      : 120 x 120 x 150 = 2.16 * 10^6 Cells
	nTimeSteps     : 100
	result file    : ../output/bench_output/parboil/lbm_short.out
	action         : store
	simulation type: lid-driven cavity
	obstacle file  : ../datasets/parboil/lbm/short/input/120_120_150_ldc.of

LBM_allocateGrid: allocated 185.2 MByte
LBM_allocateGrid: allocated 185.2 MByte
LBM_showGridStatistics:
	nObstacleCells:  343321 nAccelCells:   26912 nFluidCells: 1789767
	minRho:   1.0000 maxRho:   1.0000 mass: 2.160000e+06
	minU: 0.000000e+00 maxU: 0.000000e+00

event update

GPGPU-Sim PTX: cudaLaunch for 0x0x4045e0 (mode=performance simulation) on stream 0
GPGPU-Sim PTX: pushing kernel '_Z27performStreamCollide_kernelPfS_' to stream 0, gridDim= (120,150,1) blockDim = (120,1,1) 
####  CUstream_st::push: Start pushing kernel: performStreamCollide_kernel  ####
kernel '_Z27performStreamCollide_kernelPfS_' transfer to GPU hardware scheduler
GPGPU-Sim uArch: Shader 1 bind to kernel 1 '_Z27performStreamCollide_kernelPfS_'
GPGPU-Sim uArch: CTA/core = 6, limited by: regs
GPGPU-Sim uArch: core:  1, cta: 0 initialized @(1,0)
GPGPU-Sim uArch: Shader 2 bind to kernel 1 '_Z27performStreamCollide_kernelPfS_'
GPGPU-Sim uArch: core:  2, cta: 0 initialized @(1,0)
GPGPU-Sim uArch: Shader 3 bind to kernel 1 '_Z27performStreamCollide_kernelPfS_'
GPGPU-Sim uArch: core:  3, cta: 0 initialized @(1,0)
GPGPU-Sim uArch: Shader 4 bind to kernel 1 '_Z27performStreamCollide_kernelPfS_'
GPGPU-Sim uArch: core:  4, cta: 0 initialized @(1,0)
GPGPU-Sim uArch: Shader 5 bind to kernel 1 '_Z27performStreamCollide_kernelPfS_'
GPGPU-Sim uArch: core:  5, cta: 0 initialized @(1,0)
GPGPU-Sim uArch: Shader 6 bind to kernel 1 '_Z27performStreamCollide_kernelPfS_'
GPGPU-Sim uArch: core:  6, cta: 0 initialized @(1,0)
GPGPU-Sim uArch: Shader 7 bind to kernel 1 '_Z27performStreamCollide_kernelPfS_'
GPGPU-Sim uArch: core:  7, cta: 0 initialized @(1,0)
GPGPU-Sim uArch: Shader 8 bind to kernel 1 '_Z27performStreamCollide_kernelPfS_'
GPGPU-Sim uArch: core:  8, cta: 0 initialized @(1,0)
GPGPU-Sim uArch: Shader 9 bind to kernel 1 '_Z27performStreamCollide_kernelPfS_'
GPGPU-Sim uArch: core:  9, cta: 0 initialized @(1,0)
GPGPU-Sim uArch: Shader 10 bind to kernel 1 '_Z27performStreamCollide_kernelPfS_'
GPGPU-Sim uArch: core: 10, cta: 0 initialized @(1,0)
GPGPU-Sim uArch: Shader 11 bind to kernel 1 '_Z27performStreamCollide_kernelPfS_'
GPGPU-Sim uArch: core: 11, cta: 0 initialized @(1,0)
GPGPU-Sim uArch: Shader 12 bind to kernel 1 '_Z27performStreamCollide_kernelPfS_'
GPGPU-Sim uArch: core: 12, cta: 0 initialized @(1,0)
GPGPU-Sim uArch: Shader 13 bind to kernel 1 '_Z27performStreamCollide_kernelPfS_'
GPGPU-Sim uArch: core: 13, cta: 0 initialized @(1,0)
GPGPU-Sim uArch: Shader 14 bind to kernel 1 '_Z27performStreamCollide_kernelPfS_'
GPGPU-Sim uArch: core: 14, cta: 0 initialized @(1,0)
GPGPU-Sim uArch: Shader 0 bind to kernel 1 '_Z27performStreamCollide_kernelPfS_'
GPGPU-Sim uArch: core:  0, cta: 0 initialized @(1,0)
GPGPU-Sim uArch: core:  1, cta: 1 initialized @(2,0)
GPGPU-Sim uArch: core:  2, cta: 1 initialized @(2,0)
GPGPU-Sim uArch: core:  3, cta: 1 initialized @(2,0)
GPGPU-Sim uArch: core:  4, cta: 1 initialized @(2,0)
GPGPU-Sim uArch: core:  5, cta: 1 initialized @(2,0)
GPGPU-Sim uArch: core:  6, cta: 1 initialized @(2,0)
GPGPU-Sim uArch: core:  7, cta: 1 initialized @(2,0)
GPGPU-Sim uArch: core:  8, cta: 1 initialized @(2,0)
GPGPU-Sim uArch: core:  9, cta: 1 initialized @(2,0)
GPGPU-Sim uArch: core: 10, cta: 1 initialized @(2,0)
GPGPU-Sim uArch: core: 11, cta: 1 initialized @(2,0)
GPGPU-Sim uArch: core: 12, cta: 1 initialized @(2,0)
GPGPU-Sim uArch: core: 13, cta: 1 initialized @(2,0)
GPGPU-Sim uArch: core: 14, cta: 1 initialized @(2,0)
GPGPU-Sim uArch: core:  0, cta: 1 initialized @(2,0)
GPGPU-Sim uArch: core:  1, cta: 2 initialized @(3,0)
GPGPU-Sim uArch: core:  2, cta: 2 initialized @(3,0)
GPGPU-Sim uArch: core:  3, cta: 2 initialized @(3,0)
GPGPU-Sim uArch: core:  4, cta: 2 initialized @(3,0)
GPGPU-Sim uArch: core:  5, cta: 2 initialized @(3,0)
GPGPU-Sim uArch: core:  6, cta: 2 initialized @(3,0)
GPGPU-Sim uArch: core:  7, cta: 2 initialized @(3,0)
GPGPU-Sim uArch: core:  8, cta: 2 initialized @(3,0)
GPGPU-Sim uArch: core:  9, cta: 2 initialized @(3,0)
GPGPU-Sim uArch: core: 10, cta: 2 initialized @(3,0)
GPGPU-Sim uArch: core: 11, cta: 2 initialized @(3,0)
GPGPU-Sim uArch: core: 12, cta: 2 initialized @(3,0)
GPGPU-Sim uArch: core: 13, cta: 2 initialized @(3,0)
GPGPU-Sim uArch: core: 14, cta: 2 initialized @(3,0)
GPGPU-Sim uArch: core:  0, cta: 2 initialized @(3,0)
GPGPU-Sim uArch: core:  1, cta: 3 initialized @(4,0)
GPGPU-Sim uArch: core:  2, cta: 3 initialized @(4,0)
GPGPU-Sim uArch: core:  3, cta: 3 initialized @(4,0)
GPGPU-Sim uArch: core:  4, cta: 3 initialized @(4,0)
GPGPU-Sim uArch: core:  5, cta: 3 initialized @(4,0)
GPGPU-Sim uArch: core:  6, cta: 3 initialized @(4,0)
GPGPU-Sim uArch: core:  7, cta: 3 initialized @(4,0)
GPGPU-Sim uArch: core:  8, cta: 3 initialized @(4,0)
GPGPU-Sim uArch: core:  9, cta: 3 initialized @(4,0)
GPGPU-Sim uArch: core: 10, cta: 3 initialized @(4,0)
GPGPU-Sim uArch: core: 11, cta: 3 initialized @(4,0)
GPGPU-Sim uArch: core: 12, cta: 3 initialized @(4,0)
GPGPU-Sim uArch: core: 13, cta: 3 initialized @(4,0)
GPGPU-Sim uArch: core: 14, cta: 3 initialized @(4,0)
GPGPU-Sim uArch: core:  0, cta: 3 initialized @(4,0)
GPGPU-Sim uArch: core:  1, cta: 4 initialized @(5,0)
GPGPU-Sim uArch: core:  2, cta: 4 initialized @(5,0)
GPGPU-Sim uArch: core:  3, cta: 4 initialized @(5,0)
GPGPU-Sim uArch: core:  4, cta: 4 initialized @(5,0)
GPGPU-Sim uArch: core:  5, cta: 4 initialized @(5,0)
GPGPU-Sim uArch: core:  6, cta: 4 initialized @(5,0)
GPGPU-Sim uArch: core:  7, cta: 4 initialized @(5,0)
GPGPU-Sim uArch: core:  8, cta: 4 initialized @(5,0)
GPGPU-Sim uArch: core:  9, cta: 4 initialized @(5,0)
GPGPU-Sim uArch: core: 10, cta: 4 initialized @(5,0)
GPGPU-Sim uArch: core: 11, cta: 4 initialized @(5,0)
GPGPU-Sim uArch: core: 12, cta: 4 initialized @(5,0)
GPGPU-Sim uArch: core: 13, cta: 4 initialized @(5,0)
GPGPU-Sim uArch: core: 14, cta: 4 initialized @(5,0)
GPGPU-Sim uArch: core:  0, cta: 4 initialized @(5,0)
GPGPU-Sim uArch: core:  1, cta: 5 initialized @(6,0)
GPGPU-Sim uArch: core:  2, cta: 5 initialized @(6,0)
GPGPU-Sim uArch: core:  3, cta: 5 initialized @(6,0)
GPGPU-Sim uArch: core:  4, cta: 5 initialized @(6,0)
GPGPU-Sim uArch: core:  5, cta: 5 initialized @(6,0)
GPGPU-Sim uArch: core:  6, cta: 5 initialized @(6,0)
GPGPU-Sim uArch: core:  7, cta: 5 initialized @(6,0)
GPGPU-Sim uArch: core:  8, cta: 5 initialized @(6,0)
GPGPU-Sim uArch: core:  9, cta: 5 initialized @(6,0)
GPGPU-Sim uArch: core: 10, cta: 5 initialized @(6,0)
GPGPU-Sim uArch: core: 11, cta: 5 initialized @(6,0)
GPGPU-Sim uArch: core: 12, cta: 5 initialized @(6,0)
GPGPU-Sim uArch: core: 13, cta: 5 initialized @(6,0)
GPGPU-Sim uArch: core: 14, cta: 5 initialized @(6,0)
GPGPU-Sim uArch: core:  0, cta: 5 initialized @(6,0)
GPGPU-Sim uArch: Shader 3 finished CTA #0 (16314,0), 5 CTAs running
GPGPU-Sim uArch: core:  3, cta: 0 initialized @(16315,0)
GPGPU-Sim uArch: Shader 0 finished CTA #0 (17065,0), 5 CTAs running
GPGPU-Sim uArch: core:  0, cta: 0 initialized @(17066,0)
GPGPU-Sim uArch: Shader 11 finished CTA #0 (17149,0), 5 CTAs running
GPGPU-Sim uArch: core: 11, cta: 0 initialized @(17150,0)
GPGPU-Sim uArch: Shader 8 finished CTA #0 (18582,0), 5 CTAs running
GPGPU-Sim uArch: core:  8, cta: 0 initialized @(18583,0)
GPGPU-Sim uArch: Shader 2 finished CTA #0 (18792,0), 5 CTAs running
GPGPU-Sim uArch: core:  2, cta: 0 initialized @(18793,0)
GPGPU-Sim uArch: Shader 12 finished CTA #0 (19314,0), 5 CTAs running
GPGPU-Sim uArch: core: 12, cta: 0 initialized @(19315,0)
GPGPU-Sim uArch: Shader 9 finished CTA #0 (19540,0), 5 CTAs running
GPGPU-Sim uArch: core:  9, cta: 0 initialized @(19541,0)
GPGPU-Sim uArch: Shader 13 finished CTA #0 (19750,0), 5 CTAs running
GPGPU-Sim uArch: core: 13, cta: 0 initialized @(19751,0)
GPGPU-Sim uArch: Shader 5 finished CTA #0 (20192,0), 5 CTAs running
GPGPU-Sim uArch: core:  5, cta: 0 initialized @(20193,0)
GPGPU-Sim uArch: Shader 5 finished CTA #2 (20476,0), 5 CTAs running
GPGPU-Sim uArch: core:  5, cta: 2 initialized @(20477,0)
GPGPU-Sim uArch: Shader 5 finished CTA #3 (20696,0), 5 CTAs running
GPGPU-Sim uArch: core:  5, cta: 3 initialized @(20697,0)
GPGPU-Sim uArch: Shader 5 finished CTA #4 (20707,0), 5 CTAs running
GPGPU-Sim uArch: core:  5, cta: 4 initialized @(20708,0)
GPGPU-Sim uArch: Shader 5 finished CTA #5 (20757,0), 5 CTAs running
GPGPU-Sim uArch: core:  5, cta: 5 initialized @(20758,0)
GPGPU-Sim uArch: Shader 5 finished CTA #1 (20938,0), 5 CTAs running
GPGPU-Sim uArch: core:  5, cta: 1 initialized @(20939,0)
GPGPU-Sim uArch: Shader 6 finished CTA #0 (21089,0), 5 CTAs running
GPGPU-Sim uArch: core:  6, cta: 0 initialized @(21090,0)
GPGPU-Sim uArch: Shader 6 finished CTA #2 (21393,0), 5 CTAs running
GPGPU-Sim uArch: core:  6, cta: 2 initialized @(21394,0)
GPGPU-Sim uArch: Shader 6 finished CTA #1 (21486,0), 5 CTAs running
GPGPU-Sim uArch: core:  6, cta: 1 initialized @(21487,0)
GPGPU-Sim uArch: Shader 6 finished CTA #4 (21491,0), 5 CTAs running
GPGPU-Sim uArch: core:  6, cta: 4 initialized @(21492,0)
GPGPU-Sim uArch: Shader 6 finished CTA #3 (21577,0), 5 CTAs running
GPGPU-Sim uArch: core:  6, cta: 3 initialized @(21578,0)
GPGPU-Sim uArch: Shader 6 finished CTA #5 (21651,0), 5 CTAs running
GPGPU-Sim uArch: core:  6, cta: 5 initialized @(21652,0)
GPGPU-Sim uArch: Shader 7 finished CTA #1 (21752,0), 5 CTAs running
GPGPU-Sim uArch: core:  7, cta: 1 initialized @(21753,0)
GPGPU-Sim uArch: Shader 14 finished CTA #5 (21822,0), 5 CTAs running
GPGPU-Sim uArch: core: 14, cta: 5 initialized @(21823,0)
GPGPU-Sim uArch: Shader 1 finished CTA #4 (21982,0), 5 CTAs running
GPGPU-Sim uArch: core:  1, cta: 4 initialized @(21983,0)
GPGPU-Sim uArch: Shader 7 finished CTA #3 (22044,0), 5 CTAs running
GPGPU-Sim uArch: core:  7, cta: 3 initialized @(22045,0)
GPGPU-Sim uArch: Shader 7 finished CTA #2 (22100,0), 5 CTAs running
GPGPU-Sim uArch: core:  7, cta: 2 initialized @(22101,0)
GPGPU-Sim uArch: Shader 14 finished CTA #3 (22188,0), 5 CTAs running
GPGPU-Sim uArch: core: 14, cta: 3 initialized @(22189,0)
GPGPU-Sim uArch: Shader 7 finished CTA #4 (22198,0), 5 CTAs running
GPGPU-Sim uArch: core:  7, cta: 4 initialized @(22199,0)
GPGPU-Sim uArch: Shader 7 finished CTA #0 (22211,0), 5 CTAs running
GPGPU-Sim uArch: core:  7, cta: 0 initialized @(22212,0)
GPGPU-Sim uArch: Shader 7 finished CTA #5 (22282,0), 5 CTAs running
GPGPU-Sim uArch: core:  7, cta: 5 initialized @(22283,0)
GPGPU-Sim uArch: Shader 3 finished CTA #1 (22350,0), 5 CTAs running
GPGPU-Sim uArch: core:  3, cta: 1 initialized @(22351,0)
GPGPU-Sim uArch: Shader 4 finished CTA #3 (22441,0), 5 CTAs running
GPGPU-Sim uArch: core:  4, cta: 3 initialized @(22442,0)
GPGPU-Sim uArch: Shader 14 finished CTA #1 (22523,0), 5 CTAs running
GPGPU-Sim uArch: core: 14, cta: 1 initialized @(22524,0)
GPGPU-Sim uArch: Shader 14 finished CTA #0 (22529,0), 5 CTAs running
GPGPU-Sim uArch: core: 14, cta: 0 initialized @(22530,0)
GPGPU-Sim uArch: Shader 12 finished CTA #1 (22542,0), 5 CTAs running
GPGPU-Sim uArch: core: 12, cta: 1 initialized @(22543,0)
GPGPU-Sim uArch: Shader 14 finished CTA #4 (22675,0), 5 CTAs running
GPGPU-Sim uArch: core: 14, cta: 4 initialized @(22676,0)
GPGPU-Sim uArch: Shader 3 finished CTA #3 (22736,0), 5 CTAs running
GPGPU-Sim uArch: core:  3, cta: 3 initialized @(22737,0)
GPGPU-Sim uArch: Shader 14 finished CTA #2 (22742,0), 5 CTAs running
GPGPU-Sim uArch: core: 14, cta: 2 initialized @(22743,0)
GPGPU-Sim uArch: Shader 3 finished CTA #2 (22779,0), 5 CTAs running
GPGPU-Sim uArch: core:  3, cta: 2 initialized @(22780,0)
GPGPU-Sim uArch: Shader 3 finished CTA #4 (22912,0), 5 CTAs running
GPGPU-Sim uArch: core:  3, cta: 4 initialized @(22913,0)
GPGPU-Sim uArch: Shader 3 finished CTA #5 (22985,0), 5 CTAs running
GPGPU-Sim uArch: core:  3, cta: 5 initialized @(22986,0)
GPGPU-Sim uArch: Shader 4 finished CTA #2 (22998,0), 5 CTAs running
GPGPU-Sim uArch: core:  4, cta: 2 initialized @(22999,0)
GPGPU-Sim uArch: Shader 8 finished CTA #1 (23014,0), 5 CTAs running
GPGPU-Sim uArch: core:  8, cta: 1 initialized @(23015,0)
GPGPU-Sim uArch: Shader 9 finished CTA #2 (23068,0), 5 CTAs running
GPGPU-Sim uArch: core:  9, cta: 2 initialized @(23069,0)
GPGPU-Sim uArch: Shader 9 finished CTA #1 (23073,0), 5 CTAs running
GPGPU-Sim uArch: core:  9, cta: 1 initialized @(23074,0)
GPGPU-Sim uArch: Shader 11 finished CTA #1 (23196,0), 5 CTAs running
GPGPU-Sim uArch: core: 11, cta: 1 initialized @(23197,0)
GPGPU-Sim uArch: Shader 1 finished CTA #5 (23303,0), 5 CTAs running
GPGPU-Sim uArch: core:  1, cta: 5 initialized @(23304,0)
GPGPU-Sim uArch: Shader 1 finished CTA #0 (23420,0), 5 CTAs running
GPGPU-Sim uArch: core:  1, cta: 0 initialized @(23421,0)
GPGPU-Sim uArch: Shader 8 finished CTA #2 (23425,0), 5 CTAs running
GPGPU-Sim uArch: Shader 10 finished CTA #5 (23425,0), 5 CTAs running
GPGPU-Sim uArch: core:  8, cta: 2 initialized @(23426,0)
GPGPU-Sim uArch: core: 10, cta: 5 initialized @(23426,0)
GPGPU-Sim uArch: Shader 9 finished CTA #3 (23439,0), 5 CTAs running
GPGPU-Sim uArch: core:  9, cta: 3 initialized @(23440,0)
GPGPU-Sim uArch: Shader 4 finished CTA #5 (23469,0), 5 CTAs running
GPGPU-Sim uArch: core:  4, cta: 5 initialized @(23470,0)
GPGPU-Sim uArch: Shader 9 finished CTA #4 (23490,0), 5 CTAs running
GPGPU-Sim uArch: core:  9, cta: 4 initialized @(23491,0)
GPGPU-Sim uArch: Shader 9 finished CTA #5 (23555,0), 5 CTAs running
GPGPU-Sim uArch: core:  9, cta: 5 initialized @(23556,0)
GPGPU-Sim uArch: Shader 0 finished CTA #2 (23574,0), 5 CTAs running
GPGPU-Sim uArch: core:  0, cta: 2 initialized @(23575,0)
GPGPU-Sim uArch: Shader 4 finished CTA #0 (23710,0), 5 CTAs running
GPGPU-Sim uArch: core:  4, cta: 0 initialized @(23711,0)
GPGPU-Sim uArch: Shader 10 finished CTA #2 (23835,0), 5 CTAs running
GPGPU-Sim uArch: core: 10, cta: 2 initialized @(23836,0)
GPGPU-Sim uArch: Shader 0 finished CTA #1 (23882,0), 5 CTAs running
GPGPU-Sim uArch: core:  0, cta: 1 initialized @(23883,0)
GPGPU-Sim uArch: Shader 8 finished CTA #3 (23945,0), 5 CTAs running
GPGPU-Sim uArch: core:  8, cta: 3 initialized @(23946,0)
GPGPU-Sim uArch: Shader 0 finished CTA #4 (24020,0), 5 CTAs running
GPGPU-Sim uArch: core:  0, cta: 4 initialized @(24021,0)
GPGPU-Sim uArch: Shader 0 finished CTA #3 (24025,0), 5 CTAs running
GPGPU-Sim uArch: core:  0, cta: 3 initialized @(24026,0)
GPGPU-Sim uArch: Shader 12 finished CTA #2 (24073,0), 5 CTAs running
GPGPU-Sim uArch: core: 12, cta: 2 initialized @(24074,0)
GPGPU-Sim uArch: Shader 1 finished CTA #1 (24080,0), 5 CTAs running
GPGPU-Sim uArch: core:  1, cta: 1 initialized @(24081,0)
GPGPU-Sim uArch: Shader 10 finished CTA #0 (24124,0), 5 CTAs running
GPGPU-Sim uArch: core: 10, cta: 0 initialized @(24125,0)
GPGPU-Sim uArch: Shader 0 finished CTA #5 (24183,0), 5 CTAs running
GPGPU-Sim uArch: core:  0, cta: 5 initialized @(24184,0)
GPGPU-Sim uArch: Shader 13 finished CTA #1 (24215,0), 5 CTAs running
GPGPU-Sim uArch: core: 13, cta: 1 initialized @(24216,0)
GPGPU-Sim uArch: Shader 13 finished CTA #2 (24228,0), 5 CTAs running
GPGPU-Sim uArch: core: 13, cta: 2 initialized @(24229,0)
GPGPU-Sim uArch: Shader 12 finished CTA #3 (24372,0), 5 CTAs running
GPGPU-Sim uArch: core: 12, cta: 3 initialized @(24373,0)
GPGPU-Sim uArch: Shader 1 finished CTA #2 (24441,0), 5 CTAs running
GPGPU-Sim uArch: core:  1, cta: 2 initialized @(24442,0)
GPGPU-Sim uArch: Shader 13 finished CTA #5 (24508,0), 5 CTAs running
GPGPU-Sim uArch: core: 13, cta: 5 initialized @(24509,0)
GPGPU-Sim uArch: Shader 1 finished CTA #3 (24601,0), 5 CTAs running
GPGPU-Sim uArch: core:  1, cta: 3 initialized @(24602,0)
GPGPU-Sim uArch: Shader 10 finished CTA #1 (24602,0), 5 CTAs running
GPGPU-Sim uArch: core: 10, cta: 1 initialized @(24603,0)
GPGPU-Sim uArch: Shader 12 finished CTA #4 (24695,0), 5 CTAs running
GPGPU-Sim uArch: core: 12, cta: 4 initialized @(24696,0)
GPGPU-Sim uArch: Shader 12 finished CTA #5 (24703,0), 5 CTAs running
GPGPU-Sim uArch: core: 12, cta: 5 initialized @(24704,0)
GPGPU-Sim uArch: Shader 10 finished CTA #3 (24733,0), 5 CTAs running
GPGPU-Sim uArch: core: 10, cta: 3 initialized @(24734,0)
GPGPU-Sim uArch: Shader 13 finished CTA #3 (24833,0), 5 CTAs running
GPGPU-Sim uArch: core: 13, cta: 3 initialized @(24834,0)
GPGPU-Sim uArch: Shader 13 finished CTA #4 (24889,0), 5 CTAs running
GPGPU-Sim uArch: core: 13, cta: 4 initialized @(24890,0)
GPGPU-Sim uArch: Shader 10 finished CTA #4 (24900,0), 5 CTAs running
GPGPU-Sim uArch: core: 10, cta: 4 initialized @(24901,0)
GPGPU-Sim uArch: Shader 11 finished CTA #2 (24921,0), 5 CTAs running
GPGPU-Sim uArch: core: 11, cta: 2 initialized @(24922,0)
GPGPU-Sim uArch: Shader 2 finished CTA #2 (24949,0), 5 CTAs running
GPGPU-Sim uArch: core:  2, cta: 2 initialized @(24950,0)
GPGPU-Sim uArch: Shader 2 finished CTA #1 (25131,0), 5 CTAs running
GPGPU-Sim uArch: Shader 11 finished CTA #3 (25131,0), 5 CTAs running
GPGPU-Sim uArch: core: 11, cta: 3 initialized @(25132,0)
GPGPU-Sim uArch: core:  2, cta: 1 initialized @(25132,0)
GPGPU-Sim uArch: Shader 11 finished CTA #4 (25278,0), 5 CTAs running
GPGPU-Sim uArch: core: 11, cta: 4 initialized @(25279,0)
GPGPU-Sim uArch: Shader 2 finished CTA #4 (25334,0), 5 CTAs running
GPGPU-Sim uArch: core:  2, cta: 4 initialized @(25335,0)
GPGPU-Sim uArch: Shader 11 finished CTA #5 (25344,0), 5 CTAs running
GPGPU-Sim uArch: core: 11, cta: 5 initialized @(25345,0)
GPGPU-Sim uArch: Shader 2 finished CTA #3 (25349,0), 5 CTAs running
GPGPU-Sim uArch: core:  2, cta: 3 initialized @(25350,0)
GPGPU-Sim uArch: Shader 2 finished CTA #5 (25392,0), 5 CTAs running
GPGPU-Sim uArch: core:  2, cta: 5 initialized @(25393,0)
GPGPU-Sim uArch: Shader 8 finished CTA #4 (25608,0), 5 CTAs running
GPGPU-Sim uArch: core:  8, cta: 4 initialized @(25609,0)
GPGPU-Sim uArch: Shader 4 finished CTA #1 (25897,0), 5 CTAs running
GPGPU-Sim uArch: core:  4, cta: 1 initialized @(25898,0)
GPGPU-Sim uArch: Shader 8 finished CTA #5 (25970,0), 5 CTAs running
GPGPU-Sim uArch: core:  8, cta: 5 initialized @(25971,0)
GPGPU-Sim uArch: Shader 4 finished CTA #4 (28543,0), 5 CTAs running
GPGPU-Sim uArch: core:  4, cta: 4 initialized @(28544,0)
GPGPU-Sim uArch: Shader 3 finished CTA #0 (30284,0), 5 CTAs running
GPGPU-Sim uArch: core:  3, cta: 0 initialized @(30285,0)
GPGPU-Sim uArch: Shader 12 finished CTA #0 (31480,0), 5 CTAs running
GPGPU-Sim uArch: core: 12, cta: 0 initialized @(31481,0)
GPGPU-Sim uArch: Shader 0 finished CTA #0 (31509,0), 5 CTAs running
GPGPU-Sim uArch: core:  0, cta: 0 initialized @(31510,0)
GPGPU-Sim uArch: Shader 14 finished CTA #5 (31759,0), 5 CTAs running
GPGPU-Sim uArch: core: 14, cta: 5 initialized @(31760,0)
GPGPU-Sim uArch: Shader 9 finished CTA #0 (31788,0), 5 CTAs running
GPGPU-Sim uArch: core:  9, cta: 0 initialized @(31789,0)
GPGPU-Sim uArch: Shader 3 finished CTA #1 (31932,0), 5 CTAs running
GPGPU-Sim uArch: core:  3, cta: 1 initialized @(31933,0)
GPGPU-Sim uArch: Shader 11 finished CTA #0 (31956,0), 5 CTAs running
GPGPU-Sim uArch: core: 11, cta: 0 initialized @(31957,0)
GPGPU-Sim uArch: Shader 8 finished CTA #0 (31984,0), 5 CTAs running
GPGPU-Sim uArch: core:  8, cta: 0 initialized @(31985,0)
GPGPU-Sim uArch: Shader 14 finished CTA #3 (32139,0), 5 CTAs running
GPGPU-Sim uArch: core: 14, cta: 3 initialized @(32140,0)
GPGPU-Sim uArch: Shader 13 finished CTA #0 (32226,0), 5 CTAs running
GPGPU-Sim uArch: core: 13, cta: 0 initialized @(32227,0)
GPGPU-Sim uArch: Shader 2 finished CTA #0 (32452,0), 5 CTAs running
GPGPU-Sim uArch: core:  2, cta: 0 initialized @(32453,0)
GPGPU-Sim uArch: Shader 1 finished CTA #4 (32804,0), 5 CTAs running
GPGPU-Sim uArch: core:  1, cta: 4 initialized @(32805,0)
GPGPU-Sim uArch: Shader 5 finished CTA #0 (33192,0), 5 CTAs running
GPGPU-Sim uArch: core:  5, cta: 0 initialized @(33193,0)
GPGPU-Sim uArch: Shader 5 finished CTA #2 (33398,0), 5 CTAs running
GPGPU-Sim uArch: core:  5, cta: 2 initialized @(33399,0)
GPGPU-Sim uArch: Shader 7 finished CTA #1 (33659,0), 5 CTAs running
GPGPU-Sim uArch: core:  7, cta: 1 initialized @(33660,0)
GPGPU-Sim uArch: Shader 4 finished CTA #3 (33724,0), 5 CTAs running
GPGPU-Sim uArch: core:  4, cta: 3 initialized @(33725,0)
GPGPU-Sim uArch: Shader 5 finished CTA #5 (36457,0), 5 CTAs running
GPGPU-Sim uArch: core:  5, cta: 5 initialized @(36458,0)
GPGPU-Sim uArch: Shader 6 finished CTA #0 (36773,0), 5 CTAs running
GPGPU-Sim uArch: core:  6, cta: 0 initialized @(36774,0)
GPGPU-Sim uArch: Shader 5 finished CTA #1 (38543,0), 5 CTAs running
GPGPU-Sim uArch: core:  5, cta: 1 initialized @(38544,0)
GPGPU-Sim uArch: Shader 7 finished CTA #0 (39092,0), 5 CTAs running
GPGPU-Sim uArch: core:  7, cta: 0 initialized @(39093,0)
GPGPU-Sim uArch: Shader 7 finished CTA #2 (39237,0), 5 CTAs running
GPGPU-Sim uArch: core:  7, cta: 2 initialized @(39238,0)
GPGPU-Sim uArch: Shader 7 finished CTA #4 (39747,0), 5 CTAs running
GPGPU-Sim uArch: core:  7, cta: 4 initialized @(39748,0)
GPGPU-Sim uArch: Shader 5 finished CTA #3 (40341,0), 5 CTAs running
GPGPU-Sim uArch: core:  5, cta: 3 initialized @(40342,0)
GPGPU-Sim uArch: Shader 7 finished CTA #5 (40452,0), 5 CTAs running
GPGPU-Sim uArch: core:  7, cta: 5 initialized @(40453,0)
GPGPU-Sim uArch: Shader 7 finished CTA #3 (40598,0), 5 CTAs running
GPGPU-Sim uArch: core:  7, cta: 3 initialized @(40599,0)
GPGPU-Sim uArch: Shader 6 finished CTA #1 (40848,0), 5 CTAs running
GPGPU-Sim uArch: core:  6, cta: 1 initialized @(40849,0)
GPGPU-Sim uArch: Shader 5 finished CTA #4 (41131,0), 5 CTAs running
GPGPU-Sim uArch: core:  5, cta: 4 initialized @(41132,0)
GPGPU-Sim uArch: Shader 6 finished CTA #4 (42294,0), 5 CTAs running
GPGPU-Sim uArch: core:  6, cta: 4 initialized @(42295,0)
GPGPU-Sim uArch: Shader 6 finished CTA #2 (42426,0), 5 CTAs running
GPGPU-Sim uArch: core:  6, cta: 2 initialized @(42427,0)
GPGPU-Sim uArch: Shader 6 finished CTA #3 (42472,0), 5 CTAs running
GPGPU-Sim uArch: core:  6, cta: 3 initialized @(42473,0)
GPGPU-Sim uArch: Shader 6 finished CTA #5 (42730,0), 5 CTAs running
GPGPU-Sim uArch: core:  6, cta: 5 initialized @(42731,0)
GPGPU-Sim uArch: Shader 14 finished CTA #0 (44130,0), 5 CTAs running
GPGPU-Sim uArch: core: 14, cta: 0 initialized @(44131,0)
GPGPU-Sim uArch: Shader 14 finished CTA #4 (44195,0), 5 CTAs running
GPGPU-Sim uArch: core: 14, cta: 4 initialized @(44196,0)
GPGPU-Sim uArch: Shader 12 finished CTA #2 (44219,0), 5 CTAs running
GPGPU-Sim uArch: core: 12, cta: 2 initialized @(44220,0)
GPGPU-Sim uArch: Shader 4 finished CTA #5 (44225,0), 5 CTAs running
GPGPU-Sim uArch: core:  4, cta: 5 initialized @(44226,0)
GPGPU-Sim uArch: Shader 4 finished CTA #0 (44298,0), 5 CTAs running
GPGPU-Sim uArch: core:  4, cta: 0 initialized @(44299,0)
GPGPU-Sim uArch: Shader 12 finished CTA #1 (44340,0), 5 CTAs running
GPGPU-Sim uArch: core: 12, cta: 1 initialized @(44341,0)
GPGPU-Sim uArch: Shader 14 finished CTA #1 (44405,0), 5 CTAs running
GPGPU-Sim uArch: core: 14, cta: 1 initialized @(44406,0)
GPGPU-Sim uArch: Shader 10 finished CTA #3 (44456,0), 5 CTAs running
GPGPU-Sim uArch: core: 10, cta: 3 initialized @(44457,0)
GPGPU-Sim uArch: Shader 4 finished CTA #1 (44484,0), 5 CTAs running
GPGPU-Sim uArch: core:  4, cta: 1 initialized @(44485,0)
GPGPU-Sim uArch: Shader 10 finished CTA #5 (44523,0), 5 CTAs running
GPGPU-Sim uArch: core: 10, cta: 5 initialized @(44524,0)
GPGPU-Sim uArch: Shader 4 finished CTA #4 (44536,0), 5 CTAs running
GPGPU-Sim uArch: core:  4, cta: 4 initialized @(44537,0)
GPGPU-Sim uArch: Shader 14 finished CTA #2 (44538,0), 5 CTAs running
GPGPU-Sim uArch: core: 14, cta: 2 initialized @(44539,0)
GPGPU-Sim uArch: Shader 12 finished CTA #3 (44678,0), 5 CTAs running
GPGPU-Sim uArch: core: 12, cta: 3 initialized @(44679,0)
GPGPU-Sim uArch: Shader 8 finished CTA #3 (44691,0), 5 CTAs running
GPGPU-Sim uArch: core:  8, cta: 3 initialized @(44692,0)
GPGPU-Sim uArch: Shader 12 finished CTA #4 (44711,0), 5 CTAs running
GPGPU-Sim uArch: core: 12, cta: 4 initialized @(44712,0)
GPGPU-Sim uArch: Shader 12 finished CTA #5 (44750,0), 5 CTAs running
GPGPU-Sim uArch: core: 12, cta: 5 initialized @(44751,0)
GPGPU-Sim uArch: Shader 4 finished CTA #2 (44782,0), 5 CTAs running
GPGPU-Sim uArch: core:  4, cta: 2 initialized @(44783,0)
GPGPU-Sim uArch: Shader 10 finished CTA #4 (44865,0), 5 CTAs running
GPGPU-Sim uArch: core: 10, cta: 4 initialized @(44866,0)
GPGPU-Sim uArch: Shader 10 finished CTA #1 (44925,0), 5 CTAs running
GPGPU-Sim uArch: core: 10, cta: 1 initialized @(44926,0)
GPGPU-Sim uArch: Shader 10 finished CTA #0 (44933,0), 5 CTAs running
GPGPU-Sim uArch: core: 10, cta: 0 initialized @(44934,0)
GPGPU-Sim uArch: Shader 0 finished CTA #2 (44937,0), 5 CTAs running
GPGPU-Sim uArch: core:  0, cta: 2 initialized @(44938,0)
GPGPU-Sim uArch: Shader 14 finished CTA #3 (44996,0), 5 CTAs running
GPGPU-Sim uArch: core: 14, cta: 3 initialized @(44997,0)
GPGPU-Sim uArch: Shader 12 finished CTA #0 (45004,0), 5 CTAs running
GPGPU-Sim uArch: core: 12, cta: 0 initialized @(45005,0)
GPGPU-Sim uArch: Shader 10 finished CTA #2 (45011,0), 5 CTAs running
GPGPU-Sim uArch: core: 10, cta: 2 initialized @(45012,0)
GPGPU-Sim uArch: Shader 11 finished CTA #1 (45087,0), 5 CTAs running
GPGPU-Sim uArch: core: 11, cta: 1 initialized @(45088,0)
GPGPU-Sim uArch: Shader 11 finished CTA #0 (45133,0), 5 CTAs running
GPGPU-Sim uArch: core: 11, cta: 0 initialized @(45134,0)
GPGPU-Sim uArch: Shader 0 finished CTA #3 (45198,0), 5 CTAs running
GPGPU-Sim uArch: core:  0, cta: 3 initialized @(45199,0)
GPGPU-Sim uArch: Shader 14 finished CTA #5 (45252,0), 5 CTAs running
GPGPU-Sim uArch: core: 14, cta: 5 initialized @(45253,0)
GPGPU-Sim uArch: Shader 11 finished CTA #2 (45264,0), 5 CTAs running
GPGPU-Sim uArch: core: 11, cta: 2 initialized @(45265,0)
GPGPU-Sim uArch: Shader 0 finished CTA #4 (45347,0), 5 CTAs running
GPGPU-Sim uArch: core:  0, cta: 4 initialized @(45348,0)
GPGPU-Sim uArch: Shader 0 finished CTA #5 (45352,0), 5 CTAs running
GPGPU-Sim uArch: core:  0, cta: 5 initialized @(45353,0)
GPGPU-Sim uArch: Shader 11 finished CTA #4 (45439,0), 5 CTAs running
GPGPU-Sim uArch: core: 11, cta: 4 initialized @(45440,0)
GPGPU-Sim uArch: Shader 0 finished CTA #1 (45491,0), 5 CTAs running
GPGPU-Sim uArch: core:  0, cta: 1 initialized @(45492,0)
GPGPU-Sim uArch: Shader 8 finished CTA #1 (45522,0), 5 CTAs running
GPGPU-Sim uArch: core:  8, cta: 1 initialized @(45523,0)
GPGPU-Sim uArch: Shader 1 finished CTA #5 (45534,0), 5 CTAs running
GPGPU-Sim uArch: core:  1, cta: 5 initialized @(45535,0)
GPGPU-Sim uArch: Shader 1 finished CTA #4 (45549,0), 5 CTAs running
GPGPU-Sim uArch: core:  1, cta: 4 initialized @(45550,0)
GPGPU-Sim uArch: Shader 11 finished CTA #5 (45605,0), 5 CTAs running
GPGPU-Sim uArch: core: 11, cta: 5 initialized @(45606,0)
GPGPU-Sim uArch: Shader 11 finished CTA #3 (45627,0), 5 CTAs running
GPGPU-Sim uArch: core: 11, cta: 3 initialized @(45628,0)
GPGPU-Sim uArch: Shader 1 finished CTA #0 (45630,0), 5 CTAs running
GPGPU-Sim uArch: core:  1, cta: 0 initialized @(45631,0)
GPGPU-Sim uArch: Shader 3 finished CTA #3 (45685,0), 5 CTAs running
GPGPU-Sim uArch: core:  3, cta: 3 initialized @(45686,0)
GPGPU-Sim uArch: Shader 8 finished CTA #2 (45759,0), 5 CTAs running
GPGPU-Sim uArch: core:  8, cta: 2 initialized @(45760,0)
GPGPU-Sim uArch: Shader 1 finished CTA #1 (45762,0), 5 CTAs running
GPGPU-Sim uArch: core:  1, cta: 1 initialized @(45763,0)
GPGPU-Sim uArch: Shader 8 finished CTA #5 (45766,0), 5 CTAs running
GPGPU-Sim uArch: core:  8, cta: 5 initialized @(45767,0)
GPGPU-Sim uArch: Shader 8 finished CTA #0 (45830,0), 5 CTAs running
GPGPU-Sim uArch: core:  8, cta: 0 initialized @(45831,0)
GPGPU-Sim uArch: Shader 0 finished CTA #0 (45837,0), 5 CTAs running
GPGPU-Sim uArch: core:  0, cta: 0 initialized @(45838,0)
GPGPU-Sim uArch: Shader 3 finished CTA #1 (45858,0), 5 CTAs running
GPGPU-Sim uArch: core:  3, cta: 1 initialized @(45859,0)
GPGPU-Sim uArch: Shader 1 finished CTA #2 (45883,0), 5 CTAs running
GPGPU-Sim uArch: core:  1, cta: 2 initialized @(45884,0)
GPGPU-Sim uArch: Shader 3 finished CTA #0 (45891,0), 5 CTAs running
GPGPU-Sim uArch: core:  3, cta: 0 initialized @(45892,0)
GPGPU-Sim uArch: Shader 9 finished CTA #3 (45894,0), 5 CTAs running
GPGPU-Sim uArch: core:  9, cta: 3 initialized @(45895,0)
GPGPU-Sim uArch: Shader 8 finished CTA #4 (45932,0), 5 CTAs running
GPGPU-Sim uArch: core:  8, cta: 4 initialized @(45933,0)
GPGPU-Sim uArch: Shader 9 finished CTA #1 (45986,0), 5 CTAs running
GPGPU-Sim uArch: core:  9, cta: 1 initialized @(45987,0)
GPGPU-Sim uArch: Shader 3 finished CTA #5 (46034,0), 5 CTAs running
GPGPU-Sim uArch: core:  3, cta: 5 initialized @(46035,0)
GPGPU-Sim uArch: Shader 13 finished CTA #2 (46038,0), 5 CTAs running
GPGPU-Sim uArch: core: 13, cta: 2 initialized @(46039,0)
GPGPU-Sim uArch: Shader 2 finished CTA #1 (46043,0), 5 CTAs running
GPGPU-Sim uArch: core:  2, cta: 1 initialized @(46044,0)
GPGPU-Sim uArch: Shader 1 finished CTA #3 (46096,0), 5 CTAs running
GPGPU-Sim uArch: core:  1, cta: 3 initialized @(46097,0)
GPGPU-Sim uArch: Shader 3 finished CTA #2 (46150,0), 5 CTAs running
GPGPU-Sim uArch: core:  3, cta: 2 initialized @(46151,0)
GPGPU-Sim uArch: Shader 9 finished CTA #4 (46174,0), 5 CTAs running
GPGPU-Sim uArch: core:  9, cta: 4 initialized @(46175,0)
GPGPU-Sim uArch: Shader 2 finished CTA #2 (46179,0), 5 CTAs running
GPGPU-Sim uArch: core:  2, cta: 2 initialized @(46180,0)
GPGPU-Sim uArch: Shader 3 finished CTA #4 (46183,0), 5 CTAs running
GPGPU-Sim uArch: core:  3, cta: 4 initialized @(46184,0)
GPGPU-Sim uArch: Shader 13 finished CTA #4 (46236,0), 5 CTAs running
GPGPU-Sim uArch: core: 13, cta: 4 initialized @(46237,0)
GPGPU-Sim uArch: Shader 2 finished CTA #3 (46241,0), 5 CTAs running
GPGPU-Sim uArch: core:  2, cta: 3 initialized @(46242,0)
GPGPU-Sim uArch: Shader 2 finished CTA #5 (46268,0), 5 CTAs running
GPGPU-Sim uArch: core:  2, cta: 5 initialized @(46269,0)
GPGPU-Sim uArch: Shader 9 finished CTA #5 (46314,0), 5 CTAs running
GPGPU-Sim uArch: core:  9, cta: 5 initialized @(46315,0)
GPGPU-Sim uArch: Shader 13 finished CTA #3 (46324,0), 5 CTAs running
GPGPU-Sim uArch: core: 13, cta: 3 initialized @(46325,0)
GPGPU-Sim uArch: Shader 13 finished CTA #0 (46378,0), 5 CTAs running
GPGPU-Sim uArch: core: 13, cta: 0 initialized @(46379,0)
GPGPU-Sim uArch: Shader 9 finished CTA #0 (46420,0), 5 CTAs running
GPGPU-Sim uArch: core:  9, cta: 0 initialized @(46421,0)
GPGPU-Sim uArch: Shader 13 finished CTA #5 (46437,0), 5 CTAs running
GPGPU-Sim uArch: core: 13, cta: 5 initialized @(46438,0)
GPGPU-Sim uArch: Shader 9 finished CTA #2 (46666,0), 5 CTAs running
GPGPU-Sim uArch: core:  9, cta: 2 initialized @(46667,0)
GPGPU-Sim uArch: Shader 2 finished CTA #4 (46729,0), 5 CTAs running
GPGPU-Sim uArch: core:  2, cta: 4 initialized @(46730,0)
GPGPU-Sim uArch: Shader 13 finished CTA #1 (46856,0), 5 CTAs running
GPGPU-Sim uArch: core: 13, cta: 1 initialized @(46857,0)
GPGPU-Sim uArch: Shader 2 finished CTA #0 (47026,0), 5 CTAs running
GPGPU-Sim uArch: core:  2, cta: 0 initialized @(47027,0)
GPGPU-Sim uArch: Shader 7 finished CTA #1 (49136,0), 5 CTAs running
GPGPU-Sim uArch: core:  7, cta: 1 initialized @(49137,0)
GPGPU-Sim uArch: Shader 5 finished CTA #0 (49953,0), 5 CTAs running
GPGPU-Sim uArch: core:  5, cta: 0 initialized @(49954,0)
GPGPU-Sim uArch: Shader 5 finished CTA #1 (52387,0), 5 CTAs running
GPGPU-Sim uArch: core:  5, cta: 1 initialized @(52388,0)
GPGPU-Sim uArch: Shader 5 finished CTA #2 (53978,0), 5 CTAs running
GPGPU-Sim uArch: core:  5, cta: 2 initialized @(53979,0)
GPGPU-Sim uArch: Shader 5 finished CTA #3 (54191,0), 5 CTAs running
GPGPU-Sim uArch: core:  5, cta: 3 initialized @(54192,0)
GPGPU-Sim uArch: Shader 5 finished CTA #5 (54434,0), 5 CTAs running
GPGPU-Sim uArch: Shader 6 finished CTA #0 (54434,0), 5 CTAs running
GPGPU-Sim uArch: core:  6, cta: 0 initialized @(54435,0)
GPGPU-Sim uArch: core:  5, cta: 5 initialized @(54435,0)
GPGPU-Sim uArch: Shader 5 finished CTA #4 (54786,0), 5 CTAs running
GPGPU-Sim uArch: core:  5, cta: 4 initialized @(54787,0)
GPGPU-Sim uArch: Shader 7 finished CTA #3 (54812,0), 5 CTAs running
GPGPU-Sim uArch: core:  7, cta: 3 initialized @(54813,0)
GPGPU-Sim uArch: Shader 7 finished CTA #2 (54903,0), 5 CTAs running
GPGPU-Sim uArch: core:  7, cta: 2 initialized @(54904,0)
GPGPU-Sim uArch: Shader 6 finished CTA #1 (55197,0), 5 CTAs running
GPGPU-Sim uArch: core:  6, cta: 1 initialized @(55198,0)
GPGPU-Sim uArch: Shader 6 finished CTA #2 (55891,0), 5 CTAs running
GPGPU-Sim uArch: core:  6, cta: 2 initialized @(55892,0)
GPGPU-Sim uArch: Shader 4 finished CTA #3 (55894,0), 5 CTAs running
GPGPU-Sim uArch: core:  4, cta: 3 initialized @(55895,0)
GPGPU-Sim uArch: Shader 4 finished CTA #4 (56033,0), 5 CTAs running
GPGPU-Sim uArch: core:  4, cta: 4 initialized @(56034,0)
GPGPU-Sim uArch: Shader 7 finished CTA #4 (56356,0), 5 CTAs running
GPGPU-Sim uArch: core:  7, cta: 4 initialized @(56357,0)
GPGPU-Sim uArch: Shader 4 finished CTA #5 (57148,0), 5 CTAs running
GPGPU-Sim uArch: core:  4, cta: 5 initialized @(57149,0)
GPGPU-Sim uArch: Shader 6 finished CTA #3 (60584,0), 5 CTAs running
GPGPU-Sim uArch: core:  6, cta: 3 initialized @(60585,0)
GPGPU-Sim uArch: Shader 4 finished CTA #0 (60635,0), 5 CTAs running
GPGPU-Sim uArch: core:  4, cta: 0 initialized @(60636,0)
GPGPU-Sim uArch: Shader 4 finished CTA #1 (62864,0), 5 CTAs running
GPGPU-Sim uArch: core:  4, cta: 1 initialized @(62865,0)
GPGPU-Sim uArch: Shader 13 finished CTA #2 (63879,0), 5 CTAs running
GPGPU-Sim uArch: core: 13, cta: 2 initialized @(63880,0)
GPGPU-Sim uArch: Shader 7 finished CTA #5 (64506,0), 5 CTAs running
GPGPU-Sim uArch: core:  7, cta: 5 initialized @(64507,0)
GPGPU-Sim uArch: Shader 7 finished CTA #0 (64581,0), 5 CTAs running
GPGPU-Sim uArch: core:  7, cta: 0 initialized @(64582,0)
GPGPU-Sim uArch: Shader 7 finished CTA #1 (64681,0), 5 CTAs running
GPGPU-Sim uArch: core:  7, cta: 1 initialized @(64682,0)
GPGPU-Sim uArch: Shader 11 finished CTA #2 (64685,0), 5 CTAs running
GPGPU-Sim uArch: core: 11, cta: 2 initialized @(64686,0)
GPGPU-Sim uArch: Shader 13 finished CTA #3 (64698,0), 5 CTAs running
GPGPU-Sim uArch: core: 13, cta: 3 initialized @(64699,0)
GPGPU-Sim uArch: Shader 11 finished CTA #0 (65049,0), 5 CTAs running
GPGPU-Sim uArch: core: 11, cta: 0 initialized @(65050,0)
GPGPU-Sim uArch: Shader 11 finished CTA #3 (65107,0), 5 CTAs running
GPGPU-Sim uArch: core: 11, cta: 3 initialized @(65108,0)
GPGPU-Sim uArch: Shader 11 finished CTA #4 (65165,0), 5 CTAs running
GPGPU-Sim uArch: core: 11, cta: 4 initialized @(65166,0)
GPGPU-Sim uArch: Shader 11 finished CTA #1 (65258,0), 5 CTAs running
GPGPU-Sim uArch: core: 11, cta: 1 initialized @(65259,0)
GPGPU-Sim uArch: Shader 11 finished CTA #5 (65441,0), 5 CTAs running
GPGPU-Sim uArch: core: 11, cta: 5 initialized @(65442,0)
GPGPU-Sim uArch: Shader 6 finished CTA #4 (65532,0), 5 CTAs running
GPGPU-Sim uArch: core:  6, cta: 4 initialized @(65533,0)
GPGPU-Sim uArch: Shader 12 finished CTA #1 (65923,0), 5 CTAs running
GPGPU-Sim uArch: core: 12, cta: 1 initialized @(65924,0)
GPGPU-Sim uArch: Shader 12 finished CTA #2 (66075,0), 5 CTAs running
GPGPU-Sim uArch: core: 12, cta: 2 initialized @(66076,0)
GPGPU-Sim uArch: Shader 14 finished CTA #3 (66103,0), 5 CTAs running
GPGPU-Sim uArch: core: 14, cta: 3 initialized @(66104,0)
GPGPU-Sim uArch: Shader 12 finished CTA #4 (66136,0), 5 CTAs running
GPGPU-Sim uArch: core: 12, cta: 4 initialized @(66137,0)
GPGPU-Sim uArch: Shader 9 finished CTA #3 (66173,0), 5 CTAs running
GPGPU-Sim uArch: core:  9, cta: 3 initialized @(66174,0)
GPGPU-Sim uArch: Shader 14 finished CTA #1 (66179,0), 5 CTAs running
GPGPU-Sim uArch: core: 14, cta: 1 initialized @(66180,0)
GPGPU-Sim uArch: Shader 12 finished CTA #5 (66225,0), 5 CTAs running
GPGPU-Sim uArch: core: 12, cta: 5 initialized @(66226,0)
GPGPU-Sim uArch: Shader 1 finished CTA #0 (66235,0), 5 CTAs running
GPGPU-Sim uArch: core:  1, cta: 0 initialized @(66236,0)
GPGPU-Sim uArch: Shader 14 finished CTA #2 (66240,0), 5 CTAs running
GPGPU-Sim uArch: core: 14, cta: 2 initialized @(66241,0)
GPGPU-Sim uArch: Shader 14 finished CTA #5 (66290,0), 5 CTAs running
GPGPU-Sim uArch: core: 14, cta: 5 initialized @(66291,0)
GPGPU-Sim uArch: Shader 1 finished CTA #2 (66305,0), 5 CTAs running
GPGPU-Sim uArch: core:  1, cta: 2 initialized @(66306,0)
GPGPU-Sim uArch: Shader 0 finished CTA #2 (66314,0), 5 CTAs running
GPGPU-Sim uArch: core:  0, cta: 2 initialized @(66315,0)
GPGPU-Sim uArch: Shader 6 finished CTA #5 (66317,0), 5 CTAs running
GPGPU-Sim uArch: core:  6, cta: 5 initialized @(66318,0)
GPGPU-Sim uArch: Shader 10 finished CTA #5 (66345,0), 5 CTAs running
GPGPU-Sim uArch: core: 10, cta: 5 initialized @(66346,0)
GPGPU-Sim uArch: Shader 1 finished CTA #4 (66353,0), 5 CTAs running
GPGPU-Sim uArch: core:  1, cta: 4 initialized @(66354,0)
GPGPU-Sim uArch: Shader 12 finished CTA #3 (66359,0), 5 CTAs running
GPGPU-Sim uArch: core: 12, cta: 3 initialized @(66360,0)
GPGPU-Sim uArch: Shader 14 finished CTA #4 (66383,0), 5 CTAs running
GPGPU-Sim uArch: core: 14, cta: 4 initialized @(66384,0)
GPGPU-Sim uArch: Shader 12 finished CTA #0 (66410,0), 5 CTAs running
GPGPU-Sim uArch: core: 12, cta: 0 initialized @(66411,0)
GPGPU-Sim uArch: Shader 10 finished CTA #3 (66439,0), 5 CTAs running
GPGPU-Sim uArch: core: 10, cta: 3 initialized @(66440,0)
GPGPU-Sim uArch: Shader 14 finished CTA #0 (66443,0), 5 CTAs running
GPGPU-Sim uArch: core: 14, cta: 0 initialized @(66444,0)
GPGPU-Sim uArch: Shader 1 finished CTA #5 (66446,0), 5 CTAs running
GPGPU-Sim uArch: core:  1, cta: 5 initialized @(66447,0)
GPGPU-Sim uArch: Shader 8 finished CTA #3 (66493,0), 5 CTAs running
GPGPU-Sim uArch: core:  8, cta: 3 initialized @(66494,0)
GPGPU-Sim uArch: Shader 0 finished CTA #3 (66595,0), 5 CTAs running
GPGPU-Sim uArch: core:  0, cta: 3 initialized @(66596,0)
GPGPU-Sim uArch: Shader 10 finished CTA #1 (66610,0), 5 CTAs running
GPGPU-Sim uArch: core: 10, cta: 1 initialized @(66611,0)
GPGPU-Sim uArch: Shader 8 finished CTA #2 (66651,0), 5 CTAs running
GPGPU-Sim uArch: core:  8, cta: 2 initialized @(66652,0)
GPGPU-Sim uArch: Shader 10 finished CTA #0 (66656,0), 5 CTAs running
GPGPU-Sim uArch: core: 10, cta: 0 initialized @(66657,0)
GPGPU-Sim uArch: Shader 1 finished CTA #3 (66662,0), 5 CTAs running
GPGPU-Sim uArch: core:  1, cta: 3 initialized @(66663,0)
GPGPU-Sim uArch: Shader 10 finished CTA #4 (66674,0), 5 CTAs running
GPGPU-Sim uArch: core: 10, cta: 4 initialized @(66675,0)
GPGPU-Sim uArch: Shader 8 finished CTA #1 (66684,0), 5 CTAs running
GPGPU-Sim uArch: core:  8, cta: 1 initialized @(66685,0)
GPGPU-Sim uArch: Shader 8 finished CTA #5 (66856,0), 5 CTAs running
GPGPU-Sim uArch: core:  8, cta: 5 initialized @(66857,0)
GPGPU-Sim uArch: Shader 1 finished CTA #1 (66897,0), 5 CTAs running
GPGPU-Sim uArch: core:  1, cta: 1 initialized @(66898,0)
GPGPU-Sim uArch: Shader 4 finished CTA #2 (66945,0), 5 CTAs running
GPGPU-Sim uArch: core:  4, cta: 2 initialized @(66946,0)
GPGPU-Sim uArch: Shader 0 finished CTA #0 (67007,0), 5 CTAs running
GPGPU-Sim uArch: core:  0, cta: 0 initialized @(67008,0)
GPGPU-Sim uArch: Shader 0 finished CTA #5 (67049,0), 5 CTAs running
GPGPU-Sim uArch: core:  0, cta: 5 initialized @(67050,0)
GPGPU-Sim uArch: Shader 8 finished CTA #4 (67087,0), 5 CTAs running
GPGPU-Sim uArch: core:  8, cta: 4 initialized @(67088,0)
GPGPU-Sim uArch: Shader 8 finished CTA #0 (67108,0), 5 CTAs running
GPGPU-Sim uArch: Shader 9 finished CTA #4 (67108,0), 5 CTAs running
GPGPU-Sim uArch: core:  9, cta: 4 initialized @(67109,0)
GPGPU-Sim uArch: core:  8, cta: 0 initialized @(67109,0)
GPGPU-Sim uArch: Shader 10 finished CTA #2 (67140,0), 5 CTAs running
GPGPU-Sim uArch: core: 10, cta: 2 initialized @(67141,0)
GPGPU-Sim uArch: Shader 0 finished CTA #1 (67163,0), 5 CTAs running
GPGPU-Sim uArch: core:  0, cta: 1 initialized @(67164,0)
GPGPU-Sim uArch: Shader 13 finished CTA #5 (67202,0), 5 CTAs running
GPGPU-Sim uArch: core: 13, cta: 5 initialized @(67203,0)
GPGPU-Sim uArch: Shader 13 finished CTA #4 (67250,0), 5 CTAs running
GPGPU-Sim uArch: core: 13, cta: 4 initialized @(67251,0)
GPGPU-Sim uArch: Shader 0 finished CTA #4 (67256,0), 5 CTAs running
GPGPU-Sim uArch: core:  0, cta: 4 initialized @(67257,0)
GPGPU-Sim uArch: Shader 9 finished CTA #5 (67280,0), 5 CTAs running
GPGPU-Sim uArch: core:  9, cta: 5 initialized @(67281,0)
GPGPU-Sim uArch: Shader 9 finished CTA #2 (67651,0), 5 CTAs running
GPGPU-Sim uArch: core:  9, cta: 2 initialized @(67652,0)
GPGPU-Sim uArch: Shader 9 finished CTA #0 (67668,0), 5 CTAs running
GPGPU-Sim uArch: core:  9, cta: 0 initialized @(67669,0)
GPGPU-Sim uArch: Shader 9 finished CTA #1 (67849,0), 5 CTAs running
GPGPU-Sim uArch: core:  9, cta: 1 initialized @(67850,0)
GPGPU-Sim uArch: Shader 3 finished CTA #3 (67947,0), 5 CTAs running
GPGPU-Sim uArch: core:  3, cta: 3 initialized @(67948,0)
GPGPU-Sim uArch: Shader 13 finished CTA #0 (68013,0), 5 CTAs running
GPGPU-Sim uArch: core: 13, cta: 0 initialized @(68014,0)
GPGPU-Sim uArch: Shader 3 finished CTA #1 (68101,0), 5 CTAs running
GPGPU-Sim uArch: core:  3, cta: 1 initialized @(68102,0)
GPGPU-Sim uArch: Shader 3 finished CTA #0 (68131,0), 5 CTAs running
GPGPU-Sim uArch: core:  3, cta: 0 initialized @(68132,0)
GPGPU-Sim uArch: Shader 3 finished CTA #5 (68239,0), 5 CTAs running
GPGPU-Sim uArch: core:  3, cta: 5 initialized @(68240,0)
GPGPU-Sim uArch: Shader 3 finished CTA #4 (68248,0), 5 CTAs running
GPGPU-Sim uArch: core:  3, cta: 4 initialized @(68249,0)
GPGPU-Sim uArch: Shader 3 finished CTA #2 (68379,0), 5 CTAs running
GPGPU-Sim uArch: core:  3, cta: 2 initialized @(68380,0)
GPGPU-Sim uArch: Shader 2 finished CTA #2 (68504,0), 5 CTAs running
GPGPU-Sim uArch: core:  2, cta: 2 initialized @(68505,0)
GPGPU-Sim uArch: Shader 2 finished CTA #0 (68667,0), 5 CTAs running
GPGPU-Sim uArch: core:  2, cta: 0 initialized @(68668,0)
GPGPU-Sim uArch: Shader 6 finished CTA #0 (68677,0), 5 CTAs running
GPGPU-Sim uArch: core:  6, cta: 0 initialized @(68678,0)
GPGPU-Sim uArch: Shader 2 finished CTA #3 (68720,0), 5 CTAs running
GPGPU-Sim uArch: core:  2, cta: 3 initialized @(68721,0)
GPGPU-Sim uArch: Shader 2 finished CTA #1 (68805,0), 5 CTAs running
GPGPU-Sim uArch: core:  2, cta: 1 initialized @(68806,0)
GPGPU-Sim uArch: Shader 6 finished CTA #2 (68810,0), 5 CTAs running
GPGPU-Sim uArch: core:  6, cta: 2 initialized @(68811,0)
GPGPU-Sim uArch: Shader 6 finished CTA #1 (68848,0), 5 CTAs running
GPGPU-Sim uArch: core:  6, cta: 1 initialized @(68849,0)
GPGPU-Sim uArch: Shader 2 finished CTA #5 (68932,0), 5 CTAs running
GPGPU-Sim uArch: core:  2, cta: 5 initialized @(68933,0)
GPGPU-Sim uArch: Shader 2 finished CTA #4 (68958,0), 5 CTAs running
GPGPU-Sim uArch: core:  2, cta: 4 initialized @(68959,0)
GPGPU-Sim uArch: Shader 5 finished CTA #0 (69333,0), 5 CTAs running
GPGPU-Sim uArch: core:  5, cta: 0 initialized @(69334,0)
GPGPU-Sim uArch: Shader 5 finished CTA #1 (69709,0), 5 CTAs running
GPGPU-Sim uArch: core:  5, cta: 1 initialized @(69710,0)
GPGPU-Sim uArch: Shader 5 finished CTA #2 (70186,0), 5 CTAs running
GPGPU-Sim uArch: core:  5, cta: 2 initialized @(70187,0)
GPGPU-Sim uArch: Shader 4 finished CTA #3 (73872,0), 5 CTAs running
GPGPU-Sim uArch: core:  4, cta: 3 initialized @(73873,0)
GPGPU-Sim uArch: Shader 13 finished CTA #1 (74047,0), 5 CTAs running
GPGPU-Sim uArch: core: 13, cta: 1 initialized @(74048,0)
GPGPU-Sim uArch: Shader 7 finished CTA #2 (74276,0), 5 CTAs running
GPGPU-Sim uArch: core:  7, cta: 2 initialized @(74277,0)
GPGPU-Sim uArch: Shader 4 finished CTA #4 (74599,0), 5 CTAs running
GPGPU-Sim uArch: core:  4, cta: 4 initialized @(74600,0)
GPGPU-Sim uArch: Shader 7 finished CTA #3 (74825,0), 5 CTAs running
GPGPU-Sim uArch: core:  7, cta: 3 initialized @(74826,0)
GPGPU-Sim uArch: Shader 7 finished CTA #4 (75054,0), 5 CTAs running
GPGPU-Sim uArch: core:  7, cta: 4 initialized @(75055,0)
GPGPU-Sim uArch: Shader 4 finished CTA #5 (75313,0), 5 CTAs running
GPGPU-Sim uArch: core:  4, cta: 5 initialized @(75314,0)
GPGPU-Sim uArch: Shader 13 finished CTA #0 (77024,0), 5 CTAs running
GPGPU-Sim uArch: core: 13, cta: 0 initialized @(77025,0)
GPGPU-Sim uArch: Shader 5 finished CTA #3 (77383,0), 5 CTAs running
GPGPU-Sim uArch: core:  5, cta: 3 initialized @(77384,0)
GPGPU-Sim uArch: Shader 4 finished CTA #0 (77865,0), 5 CTAs running
GPGPU-Sim uArch: core:  4, cta: 0 initialized @(77866,0)
GPGPU-Sim uArch: Shader 5 finished CTA #4 (78445,0), 5 CTAs running
GPGPU-Sim uArch: core:  5, cta: 4 initialized @(78446,0)
GPGPU-Sim uArch: Shader 6 finished CTA #3 (79042,0), 5 CTAs running
GPGPU-Sim uArch: core:  6, cta: 3 initialized @(79043,0)
GPGPU-Sim uArch: Shader 13 finished CTA #2 (79727,0), 5 CTAs running
GPGPU-Sim uArch: core: 13, cta: 2 initialized @(79728,0)
GPGPU-Sim uArch: Shader 13 finished CTA #3 (79751,0), 5 CTAs running
GPGPU-Sim uArch: core: 13, cta: 3 initialized @(79752,0)
GPGPU-Sim uArch: Shader 13 finished CTA #4 (80212,0), 5 CTAs running
GPGPU-Sim uArch: core: 13, cta: 4 initialized @(80213,0)
GPGPU-Sim uArch: Shader 6 finished CTA #4 (80384,0), 5 CTAs running
GPGPU-Sim uArch: core:  6, cta: 4 initialized @(80385,0)
GPGPU-Sim uArch: Shader 7 finished CTA #5 (80397,0), 5 CTAs running
GPGPU-Sim uArch: core:  7, cta: 5 initialized @(80398,0)
GPGPU-Sim uArch: Shader 7 finished CTA #0 (80819,0), 5 CTAs running
GPGPU-Sim uArch: core:  7, cta: 0 initialized @(80820,0)
GPGPU-Sim uArch: Shader 7 finished CTA #1 (80965,0), 5 CTAs running
GPGPU-Sim uArch: core:  7, cta: 1 initialized @(80966,0)
GPGPU-Sim uArch: Shader 5 finished CTA #5 (82197,0), 5 CTAs running
GPGPU-Sim uArch: core:  5, cta: 5 initialized @(82198,0)
GPGPU-Sim uArch: Shader 11 finished CTA #0 (82922,0), 5 CTAs running
GPGPU-Sim uArch: core: 11, cta: 0 initialized @(82923,0)
GPGPU-Sim uArch: Shader 11 finished CTA #1 (83933,0), 5 CTAs running
GPGPU-Sim uArch: core: 11, cta: 1 initialized @(83934,0)
GPGPU-Sim uArch: Shader 6 finished CTA #5 (84005,0), 5 CTAs running
GPGPU-Sim uArch: core:  6, cta: 5 initialized @(84006,0)
GPGPU-Sim uArch: Shader 11 finished CTA #2 (84148,0), 5 CTAs running
GPGPU-Sim uArch: core: 11, cta: 2 initialized @(84149,0)
GPGPU-Sim uArch: Shader 11 finished CTA #3 (84369,0), 5 CTAs running
GPGPU-Sim uArch: core: 11, cta: 3 initialized @(84370,0)
GPGPU-Sim uArch: Shader 11 finished CTA #5 (84429,0), 5 CTAs running
GPGPU-Sim uArch: core: 11, cta: 5 initialized @(84430,0)
GPGPU-Sim uArch: Shader 11 finished CTA #4 (84530,0), 5 CTAs running
GPGPU-Sim uArch: core: 11, cta: 4 initialized @(84531,0)
GPGPU-Sim uArch: Shader 4 finished CTA #1 (84903,0), 5 CTAs running
GPGPU-Sim uArch: core:  4, cta: 1 initialized @(84904,0)
GPGPU-Sim uArch: Shader 6 finished CTA #0 (85661,0), 5 CTAs running
GPGPU-Sim uArch: core:  6, cta: 0 initialized @(85662,0)
GPGPU-Sim uArch: Shader 6 finished CTA #1 (85803,0), 5 CTAs running
GPGPU-Sim uArch: core:  6, cta: 1 initialized @(85804,0)
GPGPU-Sim uArch: Shader 6 finished CTA #2 (86097,0), 5 CTAs running
GPGPU-Sim uArch: core:  6, cta: 2 initialized @(86098,0)
GPGPU-Sim uArch: Shader 8 finished CTA #2 (86475,0), 5 CTAs running
GPGPU-Sim uArch: core:  8, cta: 2 initialized @(86476,0)
GPGPU-Sim uArch: Shader 3 finished CTA #3 (86491,0), 5 CTAs running
GPGPU-Sim uArch: core:  3, cta: 3 initialized @(86492,0)
GPGPU-Sim uArch: Shader 12 finished CTA #2 (86508,0), 5 CTAs running
GPGPU-Sim uArch: core: 12, cta: 2 initialized @(86509,0)
GPGPU-Sim uArch: Shader 8 finished CTA #4 (86512,0), 5 CTAs running
GPGPU-Sim uArch: core:  8, cta: 4 initialized @(86513,0)
GPGPU-Sim uArch: Shader 8 finished CTA #3 (86517,0), 5 CTAs running
GPGPU-Sim uArch: core:  8, cta: 3 initialized @(86518,0)
GPGPU-Sim uArch: Shader 8 finished CTA #0 (86583,0), 5 CTAs running
GPGPU-Sim uArch: core:  8, cta: 0 initialized @(86584,0)
GPGPU-Sim uArch: Shader 12 finished CTA #1 (86595,0), 5 CTAs running
GPGPU-Sim uArch: core: 12, cta: 1 initialized @(86596,0)
GPGPU-Sim uArch: Shader 12 finished CTA #3 (86604,0), 5 CTAs running
GPGPU-Sim uArch: core: 12, cta: 3 initialized @(86605,0)
GPGPU-Sim uArch: Shader 12 finished CTA #0 (86632,0), 5 CTAs running
GPGPU-Sim uArch: core: 12, cta: 0 initialized @(86633,0)
GPGPU-Sim uArch: Shader 12 finished CTA #4 (86656,0), 5 CTAs running
GPGPU-Sim uArch: core: 12, cta: 4 initialized @(86657,0)
GPGPU-Sim uArch: Shader 8 finished CTA #5 (86727,0), 5 CTAs running
GPGPU-Sim uArch: core:  8, cta: 5 initialized @(86728,0)
GPGPU-Sim uArch: Shader 12 finished CTA #5 (86769,0), 5 CTAs running
GPGPU-Sim uArch: core: 12, cta: 5 initialized @(86770,0)
GPGPU-Sim uArch: Shader 8 finished CTA #1 (86784,0), 5 CTAs running
GPGPU-Sim uArch: core:  8, cta: 1 initialized @(86785,0)
GPGPU-Sim uArch: Shader 5 finished CTA #0 (86851,0), 5 CTAs running
GPGPU-Sim uArch: core:  5, cta: 0 initialized @(86852,0)
GPGPU-Sim uArch: Shader 13 finished CTA #5 (87011,0), 5 CTAs running
GPGPU-Sim uArch: core: 13, cta: 5 initialized @(87012,0)
GPGPU-Sim uArch: Shader 7 finished CTA #2 (87058,0), 5 CTAs running
GPGPU-Sim uArch: core:  7, cta: 2 initialized @(87059,0)
GPGPU-Sim uArch: Shader 10 finished CTA #2 (87217,0), 5 CTAs running
GPGPU-Sim uArch: core: 10, cta: 2 initialized @(87218,0)
GPGPU-Sim uArch: Shader 5 finished CTA #1 (87390,0), 5 CTAs running
GPGPU-Sim uArch: core:  5, cta: 1 initialized @(87391,0)
GPGPU-Sim uArch: Shader 13 finished CTA #1 (87506,0), 5 CTAs running
GPGPU-Sim uArch: core: 13, cta: 1 initialized @(87507,0)
GPGPU-Sim uArch: Shader 1 finished CTA #0 (87526,0), 5 CTAs running
GPGPU-Sim uArch: core:  1, cta: 0 initialized @(87527,0)
GPGPU-Sim uArch: Shader 1 finished CTA #1 (87680,0), 5 CTAs running
GPGPU-Sim uArch: core:  1, cta: 1 initialized @(87681,0)
GPGPU-Sim uArch: Shader 1 finished CTA #2 (87732,0), 5 CTAs running
GPGPU-Sim uArch: core:  1, cta: 2 initialized @(87733,0)
GPGPU-Sim uArch: Shader 1 finished CTA #3 (87738,0), 5 CTAs running
GPGPU-Sim uArch: core:  1, cta: 3 initialized @(87739,0)
GPGPU-Sim uArch: Shader 14 finished CTA #1 (87746,0), 5 CTAs running
GPGPU-Sim uArch: core: 14, cta: 1 initialized @(87747,0)
GPGPU-Sim uArch: Shader 10 finished CTA #3 (87753,0), 5 CTAs running
GPGPU-Sim uArch: core: 10, cta: 3 initialized @(87754,0)
GPGPU-Sim uArch: Shader 1 finished CTA #4 (87845,0), 5 CTAs running
GPGPU-Sim uArch: core:  1, cta: 4 initialized @(87846,0)
GPGPU-Sim uArch: Shader 10 finished CTA #1 (87910,0), 5 CTAs running
GPGPU-Sim uArch: core: 10, cta: 1 initialized @(87911,0)
GPGPU-Sim uArch: Shader 1 finished CTA #5 (88011,0), 5 CTAs running
GPGPU-Sim uArch: core:  1, cta: 5 initialized @(88012,0)
GPGPU-Sim uArch: Shader 10 finished CTA #4 (88012,0), 5 CTAs running
GPGPU-Sim uArch: core: 10, cta: 4 initialized @(88013,0)
GPGPU-Sim uArch: Shader 14 finished CTA #0 (88045,0), 5 CTAs running
GPGPU-Sim uArch: core: 14, cta: 0 initialized @(88046,0)
GPGPU-Sim uArch: Shader 14 finished CTA #5 (88089,0), 5 CTAs running
GPGPU-Sim uArch: core: 14, cta: 5 initialized @(88090,0)
GPGPU-Sim uArch: Shader 0 finished CTA #2 (88100,0), 5 CTAs running
GPGPU-Sim uArch: core:  0, cta: 2 initialized @(88101,0)
GPGPU-Sim uArch: Shader 10 finished CTA #5 (88148,0), 5 CTAs running
GPGPU-Sim uArch: core: 10, cta: 5 initialized @(88149,0)
GPGPU-Sim uArch: Shader 14 finished CTA #4 (88180,0), 5 CTAs running
GPGPU-Sim uArch: core: 14, cta: 4 initialized @(88181,0)
GPGPU-Sim uArch: Shader 7 finished CTA #3 (88205,0), 5 CTAs running
GPGPU-Sim uArch: core:  7, cta: 3 initialized @(88206,0)
GPGPU-Sim uArch: Shader 14 finished CTA #2 (88277,0), 5 CTAs running
GPGPU-Sim uArch: core: 14, cta: 2 initialized @(88278,0)
GPGPU-Sim uArch: Shader 14 finished CTA #3 (88439,0), 5 CTAs running
GPGPU-Sim uArch: core: 14, cta: 3 initialized @(88440,0)
GPGPU-Sim uArch: Shader 10 finished CTA #0 (88488,0), 5 CTAs running
GPGPU-Sim uArch: core: 10, cta: 0 initialized @(88489,0)
GPGPU-Sim uArch: Shader 4 finished CTA #2 (88500,0), 5 CTAs running
GPGPU-Sim uArch: core:  4, cta: 2 initialized @(88501,0)
GPGPU-Sim uArch: Shader 0 finished CTA #0 (88514,0), 5 CTAs running
GPGPU-Sim uArch: core:  0, cta: 0 initialized @(88515,0)
GPGPU-Sim uArch: Shader 0 finished CTA #3 (88640,0), 5 CTAs running
GPGPU-Sim uArch: core:  0, cta: 3 initialized @(88641,0)
GPGPU-Sim uArch: Shader 0 finished CTA #5 (88645,0), 5 CTAs running
GPGPU-Sim uArch: core:  0, cta: 5 initialized @(88646,0)
GPGPU-Sim uArch: Shader 0 finished CTA #1 (88787,0), 5 CTAs running
GPGPU-Sim uArch: core:  0, cta: 1 initialized @(88788,0)
GPGPU-Sim uArch: Shader 0 finished CTA #4 (89006,0), 5 CTAs running
GPGPU-Sim uArch: core:  0, cta: 4 initialized @(89007,0)
GPGPU-Sim uArch: Shader 9 finished CTA #5 (89420,0), 5 CTAs running
GPGPU-Sim uArch: core:  9, cta: 5 initialized @(89421,0)
GPGPU-Sim uArch: Shader 9 finished CTA #3 (89494,0), 5 CTAs running
GPGPU-Sim uArch: core:  9, cta: 3 initialized @(89495,0)
GPGPU-Sim uArch: Shader 9 finished CTA #4 (89512,0), 5 CTAs running
GPGPU-Sim uArch: core:  9, cta: 4 initialized @(89513,0)
GPGPU-Sim uArch: Shader 9 finished CTA #0 (89613,0), 5 CTAs running
GPGPU-Sim uArch: core:  9, cta: 0 initialized @(89614,0)
GPGPU-Sim uArch: Shader 5 finished CTA #2 (89617,0), 5 CTAs running
GPGPU-Sim uArch: core:  5, cta: 2 initialized @(89618,0)
GPGPU-Sim uArch: Shader 4 finished CTA #3 (89710,0), 5 CTAs running
GPGPU-Sim uArch: core:  4, cta: 3 initialized @(89711,0)
GPGPU-Sim uArch: Shader 9 finished CTA #2 (89836,0), 5 CTAs running
GPGPU-Sim uArch: core:  9, cta: 2 initialized @(89837,0)
GPGPU-Sim uArch: Shader 9 finished CTA #1 (89888,0), 5 CTAs running
GPGPU-Sim uArch: core:  9, cta: 1 initialized @(89889,0)
GPGPU-Sim uArch: Shader 2 finished CTA #2 (90106,0), 5 CTAs running
GPGPU-Sim uArch: core:  2, cta: 2 initialized @(90107,0)
GPGPU-Sim uArch: Shader 2 finished CTA #3 (90182,0), 5 CTAs running
GPGPU-Sim uArch: core:  2, cta: 3 initialized @(90183,0)
GPGPU-Sim uArch: Shader 2 finished CTA #5 (90204,0), 5 CTAs running
GPGPU-Sim uArch: core:  2, cta: 5 initialized @(90205,0)
GPGPU-Sim uArch: Shader 3 finished CTA #4 (90220,0), 5 CTAs running
GPGPU-Sim uArch: core:  3, cta: 4 initialized @(90221,0)
GPGPU-Sim uArch: Shader 3 finished CTA #5 (90324,0), 5 CTAs running
GPGPU-Sim uArch: core:  3, cta: 5 initialized @(90325,0)
GPGPU-Sim uArch: Shader 2 finished CTA #4 (90337,0), 5 CTAs running
GPGPU-Sim uArch: core:  2, cta: 4 initialized @(90338,0)
GPGPU-Sim uArch: Shader 2 finished CTA #0 (90377,0), 5 CTAs running
GPGPU-Sim uArch: core:  2, cta: 0 initialized @(90378,0)
GPGPU-Sim uArch: Shader 3 finished CTA #0 (90468,0), 5 CTAs running
GPGPU-Sim uArch: core:  3, cta: 0 initialized @(90469,0)
GPGPU-Sim uArch: Shader 2 finished CTA #1 (90493,0), 5 CTAs running
GPGPU-Sim uArch: core:  2, cta: 1 initialized @(90494,0)
GPGPU-Sim uArch: Shader 3 finished CTA #1 (90693,0), 5 CTAs running
GPGPU-Sim uArch: core:  3, cta: 1 initialized @(90694,0)
GPGPU-Sim uArch: Shader 3 finished CTA #2 (91014,0), 5 CTAs running
GPGPU-Sim uArch: core:  3, cta: 2 initialized @(91015,0)
GPGPU-Sim uArch: Shader 7 finished CTA #4 (92664,0), 5 CTAs running
GPGPU-Sim uArch: core:  7, cta: 4 initialized @(92665,0)
GPGPU-Sim uArch: Shader 7 finished CTA #5 (93367,0), 5 CTAs running
GPGPU-Sim uArch: core:  7, cta: 5 initialized @(93368,0)
GPGPU-Sim uArch: Shader 13 finished CTA #2 (93532,0), 5 CTAs running
GPGPU-Sim uArch: core: 13, cta: 2 initialized @(93533,0)
GPGPU-Sim uArch: Shader 13 finished CTA #0 (93537,0), 5 CTAs running
GPGPU-Sim uArch: core: 13, cta: 0 initialized @(93538,0)
GPGPU-Sim uArch: Shader 4 finished CTA #4 (93665,0), 5 CTAs running
GPGPU-Sim uArch: core:  4, cta: 4 initialized @(93666,0)
GPGPU-Sim uArch: Shader 5 finished CTA #3 (93736,0), 5 CTAs running
GPGPU-Sim uArch: core:  5, cta: 3 initialized @(93737,0)
GPGPU-Sim uArch: Shader 7 finished CTA #0 (93974,0), 5 CTAs running
GPGPU-Sim uArch: core:  7, cta: 0 initialized @(93975,0)
GPGPU-Sim uArch: Shader 4 finished CTA #5 (94320,0), 5 CTAs running
GPGPU-Sim uArch: core:  4, cta: 5 initialized @(94321,0)
GPGPU-Sim uArch: Shader 13 finished CTA #3 (94515,0), 5 CTAs running
GPGPU-Sim uArch: core: 13, cta: 3 initialized @(94516,0)
GPGPU-Sim uArch: Shader 4 finished CTA #0 (94857,0), 5 CTAs running
GPGPU-Sim uArch: core:  4, cta: 0 initialized @(94858,0)
GPGPU-Sim uArch: Shader 6 finished CTA #3 (94884,0), 5 CTAs running
GPGPU-Sim uArch: core:  6, cta: 3 initialized @(94885,0)
GPGPU-Sim uArch: Shader 6 finished CTA #4 (95464,0), 5 CTAs running
GPGPU-Sim uArch: core:  6, cta: 4 initialized @(95465,0)
GPGPU-Sim uArch: Shader 6 finished CTA #5 (95722,0), 5 CTAs running
GPGPU-Sim uArch: core:  6, cta: 5 initialized @(95723,0)
GPGPU-Sim uArch: Shader 7 finished CTA #1 (96245,0), 5 CTAs running
GPGPU-Sim uArch: core:  7, cta: 1 initialized @(96246,0)
GPGPU-Sim uArch: Shader 5 finished CTA #4 (96454,0), 5 CTAs running
GPGPU-Sim uArch: core:  5, cta: 4 initialized @(96455,0)
GPGPU-Sim uArch: Shader 13 finished CTA #4 (97886,0), 5 CTAs running
GPGPU-Sim uArch: core: 13, cta: 4 initialized @(97887,0)
GPGPU-Sim uArch: Shader 11 finished CTA #0 (98667,0), 5 CTAs running
GPGPU-Sim uArch: core: 11, cta: 0 initialized @(98668,0)
GPGPU-Sim uArch: Shader 11 finished CTA #1 (99625,0), 5 CTAs running
GPGPU-Sim uArch: core: 11, cta: 1 initialized @(99626,0)
GPGPU-Sim uArch: Shader 5 finished CTA #5 (99745,0), 5 CTAs running
GPGPU-Sim uArch: core:  5, cta: 5 initialized @(99746,0)
GPGPU-Sim uArch: Shader 11 finished CTA #2 (100180,0), 5 CTAs running
GPGPU-Sim uArch: core: 11, cta: 2 initialized @(100181,0)
GPGPU-Sim uArch: Shader 5 finished CTA #0 (100651,0), 5 CTAs running
GPGPU-Sim uArch: core:  5, cta: 0 initialized @(100652,0)
GPGPU-Sim uArch: Shader 6 finished CTA #0 (102536,0), 5 CTAs running
GPGPU-Sim uArch: core:  6, cta: 0 initialized @(102537,0)
GPGPU-Sim uArch: Shader 3 finished CTA #3 (103285,0), 5 CTAs running
GPGPU-Sim uArch: core:  3, cta: 3 initialized @(103286,0)
GPGPU-Sim uArch: Shader 3 finished CTA #4 (103895,0), 5 CTAs running
GPGPU-Sim uArch: core:  3, cta: 4 initialized @(103896,0)
GPGPU-Sim uArch: Shader 6 finished CTA #1 (104002,0), 5 CTAs running
GPGPU-Sim uArch: core:  6, cta: 1 initialized @(104003,0)
GPGPU-Sim uArch: Shader 4 finished CTA #1 (104469,0), 5 CTAs running
GPGPU-Sim uArch: core:  4, cta: 1 initialized @(104470,0)
GPGPU-Sim uArch: Shader 5 finished CTA #1 (105550,0), 5 CTAs running
GPGPU-Sim uArch: core:  5, cta: 1 initialized @(105551,0)
GPGPU-Sim uArch: Shader 4 finished CTA #2 (105681,0), 5 CTAs running
GPGPU-Sim uArch: core:  4, cta: 2 initialized @(105682,0)
GPGPU-Sim uArch: Shader 6 finished CTA #2 (105893,0), 5 CTAs running
GPGPU-Sim uArch: core:  6, cta: 2 initialized @(105894,0)
GPGPU-Sim uArch: Shader 0 finished CTA #2 (105951,0), 5 CTAs running
GPGPU-Sim uArch: core:  0, cta: 2 initialized @(105952,0)
GPGPU-Sim uArch: Shader 13 finished CTA #1 (106283,0), 5 CTAs running
GPGPU-Sim uArch: core: 13, cta: 1 initialized @(106284,0)
GPGPU-Sim uArch: Shader 0 finished CTA #3 (106513,0), 5 CTAs running
GPGPU-Sim uArch: core:  0, cta: 3 initialized @(106514,0)
GPGPU-Sim uArch: Shader 13 finished CTA #5 (107013,0), 5 CTAs running
GPGPU-Sim uArch: core: 13, cta: 5 initialized @(107014,0)
GPGPU-Sim uArch: Shader 3 finished CTA #5 (107153,0), 5 CTAs running
GPGPU-Sim uArch: core:  3, cta: 5 initialized @(107154,0)
GPGPU-Sim uArch: Shader 4 finished CTA #3 (107655,0), 5 CTAs running
GPGPU-Sim uArch: core:  4, cta: 3 initialized @(107656,0)
GPGPU-Sim uArch: Shader 3 finished CTA #0 (107694,0), 5 CTAs running
GPGPU-Sim uArch: core:  3, cta: 0 initialized @(107695,0)
GPGPU-Sim uArch: Shader 7 finished CTA #2 (107997,0), 5 CTAs running
GPGPU-Sim uArch: core:  7, cta: 2 initialized @(107998,0)
GPGPU-Sim uArch: Shader 7 finished CTA #3 (108215,0), 5 CTAs running
GPGPU-Sim uArch: core:  7, cta: 3 initialized @(108216,0)
GPGPU-Sim uArch: Shader 7 finished CTA #4 (108732,0), 5 CTAs running
GPGPU-Sim uArch: core:  7, cta: 4 initialized @(108733,0)
GPGPU-Sim uArch: Shader 4 finished CTA #5 (108998,0), 5 CTAs running
GPGPU-Sim uArch: core:  4, cta: 5 initialized @(108999,0)
GPGPU-Sim uArch: Shader 11 finished CTA #3 (109037,0), 5 CTAs running
GPGPU-Sim uArch: core: 11, cta: 3 initialized @(109038,0)
GPGPU-Sim uArch: Shader 11 finished CTA #4 (109081,0), 5 CTAs running
GPGPU-Sim uArch: core: 11, cta: 4 initialized @(109082,0)
GPGPU-Sim uArch: Shader 5 finished CTA #2 (109104,0), 5 CTAs running
GPGPU-Sim uArch: core:  5, cta: 2 initialized @(109105,0)
GPGPU-Sim uArch: Shader 8 finished CTA #2 (109144,0), 5 CTAs running
GPGPU-Sim uArch: core:  8, cta: 2 initialized @(109145,0)
GPGPU-Sim uArch: Shader 8 finished CTA #0 (109216,0), 5 CTAs running
[...]
event update
event update

GPGPU-Sim PTX: cudaLaunch for 0x0x4045e0 (mode=performance simulation) on stream 0
GPGPU-Sim PTX: pushing kernel '_Z27performStreamCollide_kernelPfS_' to stream 0, gridDim= (120,150,1) blockDim = (120,1,1) 
event update
event update

GPGPU-Sim PTX: cudaLaunch for 0x0x4045e0 (mode=performance simulation) on stream 0
GPGPU-Sim PTX: pushing kernel '_Z27performStreamCollide_kernelPfS_' to stream 0, gridDim= (120,150,1) blockDim = (120,1,1) 
event update
event update

GPGPU-Sim PTX: cudaLaunch for 0x0x4045e0 (mode=performance simulation) on stream 0
GPGPU-Sim PTX: pushing kernel '_Z27performStreamCollide_kernelPfS_' to stream 0, gridDim= (120,150,1) blockDim = (120,1,1) 
event update
event update

GPGPU-Sim PTX: cudaLaunch for 0x0x4045e0 (mode=performance simulation) on stream 0
GPGPU-Sim PTX: pushing kernel '_Z27performStreamCollide_kernelPfS_' to stream 0, gridDim= (120,150,1) blockDim = (120,1,1) 
event update
event update

GPGPU-Sim PTX: cudaLaunch for 0x0x4045e0 (mode=performance simulation) on stream 0
GPGPU-Sim PTX: pushing kernel '_Z27performStreamCollide_kernelPfS_' to stream 0, gridDim= (120,150,1) blockDim = (120,1,1) 
event update
event update

GPGPU-Sim PTX: cudaLaunch for 0x0x4045e0 (mode=performance simulation) on stream 0
GPGPU-Sim PTX: pushing kernel '_Z27performStreamCollide_kernelPfS_' to stream 0, gridDim= (120,150,1) blockDim = (120,1,1) 
event update
event update

GPGPU-Sim PTX: cudaLaunch for 0x0x4045e0 (mode=performance simulation) on stream 0
GPGPU-Sim PTX: pushing kernel '_Z27performStreamCollide_kernelPfS_' to stream 0, gridDim= (120,150,1) blockDim = (120,1,1) 
event update
event update

GPGPU-Sim PTX: cudaLaunch for 0x0x4045e0 (mode=performance simulation) on stream 0
GPGPU-Sim PTX: pushing kernel '_Z27performStreamCollide_kernelPfS_' to stream 0, gridDim= (120,150,1) blockDim = (120,1,1) 
event update
event update

GPGPU-Sim PTX: cudaLaunch for 0x0x4045e0 (mode=performance simulation) on stream 0
GPGPU-Sim PTX: pushing kernel '_Z27performStreamCollide_kernelPfS_' to stream 0, gridDim= (120,150,1) blockDim = (120,1,1) 
event update
event update

GPGPU-Sim PTX: cudaLaunch for 0x0x4045e0 (mode=performance simulation) on stream 0
GPGPU-Sim PTX: pushing kernel '_Z27performStreamCollide_kernelPfS_' to stream 0, gridDim= (120,150,1) blockDim = (120,1,1) 
event update
event update

GPGPU-Sim PTX: cudaLaunch for 0x0x4045e0 (mode=performance simulation) on stream 0
GPGPU-Sim PTX: pushing kernel '_Z27performStreamCollide_kernelPfS_' to stream 0, gridDim= (120,150,1) blockDim = (120,1,1) 
event update
event update

GPGPU-Sim PTX: cudaLaunch for 0x0x4045e0 (mode=performance simulation) on stream 0
GPGPU-Sim PTX: pushing kernel '_Z27performStreamCollide_kernelPfS_' to stream 0, gridDim= (120,150,1) blockDim = (120,1,1) 
event update
event update

GPGPU-Sim PTX: cudaLaunch for 0x0x4045e0 (mode=performance simulation) on stream 0
GPGPU-Sim PTX: pushing kernel '_Z27performStreamCollide_kernelPfS_' to stream 0, gridDim= (120,150,1) blockDim = (120,1,1) 
event update
event update

GPGPU-Sim PTX: cudaLaunch for 0x0x4045e0 (mode=performance simulation) on stream 0
GPGPU-Sim PTX: pushing kernel '_Z27performStreamCollide_kernelPfS_' to stream 0, gridDim= (120,150,1) blockDim = (120,1,1) 
event update
event update

GPGPU-Sim PTX: cudaLaunch for 0x0x4045e0 (mode=performance simulation) on stream 0
GPGPU-Sim PTX: pushing kernel '_Z27performStreamCollide_kernelPfS_' to stream 0, gridDim= (120,150,1) blockDim = (120,1,1) 
event update
event update

GPGPU-Sim PTX: cudaLaunch for 0x0x4045e0 (mode=performance simulation) on stream 0
GPGPU-Sim PTX: pushing kernel '_Z27performStreamCollide_kernelPfS_' to stream 0, gridDim= (120,150,1) blockDim = (120,1,1) 
event update
event update

GPGPU-Sim PTX: cudaLaunch for 0x0x4045e0 (mode=performance simulation) on stream 0
GPGPU-Sim PTX: pushing kernel '_Z27performStreamCollide_kernelPfS_' to stream 0, gridDim= (120,150,1) blockDim = (120,1,1) 
event update
event update

GPGPU-Sim PTX: cudaLaunch for 0x0x4045e0 (mode=performance simulation) on stream 0
GPGPU-Sim PTX: pushing kernel '_Z27performStreamCollide_kernelPfS_' to stream 0, gridDim= (120,150,1) blockDim = (120,1,1) 
event update
event update

GPGPU-Sim PTX: cudaLaunch for 0x0x4045e0 (mode=performance simulation) on stream 0
GPGPU-Sim PTX: pushing kernel '_Z27performStreamCollide_kernelPfS_' to stream 0, gridDim= (120,150,1) blockDim = (120,1,1) 
event update
event update

GPGPU-Sim PTX: cudaLaunch for 0x0x4045e0 (mode=performance simulation) on stream 0
GPGPU-Sim PTX: pushing kernel '_Z27performStreamCollide_kernelPfS_' to stream 0, gridDim= (120,150,1) blockDim = (120,1,1) 
event update
event update

GPGPU-Sim PTX: cudaLaunch for 0x0x4045e0 (mode=performance simulation) on stream 0
GPGPU-Sim PTX: pushing kernel '_Z27performStreamCollide_kernelPfS_' to stream 0, gridDim= (120,150,1) blockDim = (120,1,1) 
event update
event update

GPGPU-Sim PTX: cudaLaunch for 0x0x4045e0 (mode=performance simulation) on stream 0
GPGPU-Sim PTX: pushing kernel '_Z27performStreamCollide_kernelPfS_' to stream 0, gridDim= (120,150,1) blockDim = (120,1,1) 
event update
event update

GPGPU-Sim PTX: cudaLaunch for 0x0x4045e0 (mode=performance simulation) on stream 0
GPGPU-Sim PTX: pushing kernel '_Z27performStreamCollide_kernelPfS_' to stream 0, gridDim= (120,150,1) blockDim = (120,1,1) 
event update
event update

GPGPU-Sim PTX: cudaLaunch for 0x0x4045e0 (mode=performance simulation) on stream 0
GPGPU-Sim PTX: pushing kernel '_Z27performStreamCollide_kernelPfS_' to stream 0, gridDim= (120,150,1) blockDim = (120,1,1) 
event update
event update

GPGPU-Sim PTX: cudaLaunch for 0x0x4045e0 (mode=performance simulation) on stream 0
GPGPU-Sim PTX: pushing kernel '_Z27performStreamCollide_kernelPfS_' to stream 0, gridDim= (120,150,1) blockDim = (120,1,1) 
event update
event update

GPGPU-Sim PTX: cudaLaunch for 0x0x4045e0 (mode=performance simulation) on stream 0
GPGPU-Sim PTX: pushing kernel '_Z27performStreamCollide_kernelPfS_' to stream 0, gridDim= (120,150,1) blockDim = (120,1,1) 
event update
event update

GPGPU-Sim PTX: cudaLaunch for 0x0x4045e0 (mode=performance simulation) on stream 0
GPGPU-Sim PTX: pushing kernel '_Z27performStreamCollide_kernelPfS_' to stream 0, gridDim= (120,150,1) blockDim = (120,1,1) 
event update
event update

GPGPU-Sim PTX: cudaLaunch for 0x0x4045e0 (mode=performance simulation) on stream 0
GPGPU-Sim PTX: pushing kernel '_Z27performStreamCollide_kernelPfS_' to stream 0, gridDim= (120,150,1) blockDim = (120,1,1) 
event update
event update

GPGPU-Sim PTX: cudaLaunch for 0x0x4045e0 (mode=performance simulation) on stream 0
GPGPU-Sim PTX: pushing kernel '_Z27performStreamCollide_kernelPfS_' to stream 0, gridDim= (120,150,1) blockDim = (120,1,1) 
event update
event update

GPGPU-Sim PTX: cudaLaunch for 0x0x4045e0 (mode=performance simulation) on stream 0
GPGPU-Sim PTX: pushing kernel '_Z27performStreamCollide_kernelPfS_' to stream 0, gridDim= (120,150,1) blockDim = (120,1,1) 
event update
event update

GPGPU-Sim PTX: cudaLaunch for 0x0x4045e0 (mode=performance simulation) on stream 0
GPGPU-Sim PTX: pushing kernel '_Z27performStreamCollide_kernelPfS_' to stream 0, gridDim= (120,150,1) blockDim = (120,1,1) 
event update
event update

GPGPU-Sim PTX: cudaLaunch for 0x0x4045e0 (mode=performance simulation) on stream 0
GPGPU-Sim PTX: pushing kernel '_Z27performStreamCollide_kernelPfS_' to stream 0, gridDim= (120,150,1) blockDim = (120,1,1) 
event update
event update

GPGPU-Sim PTX: cudaLaunch for 0x0x4045e0 (mode=performance simulation) on stream 0
GPGPU-Sim PTX: pushing kernel '_Z27performStreamCollide_kernelPfS_' to stream 0, gridDim= (120,150,1) blockDim = (120,1,1) 
event update
event update

GPGPU-Sim PTX: cudaLaunch for 0x0x4045e0 (mode=performance simulation) on stream 0
GPGPU-Sim PTX: pushing kernel '_Z27performStreamCollide_kernelPfS_' to stream 0, gridDim= (120,150,1) blockDim = (120,1,1) 
event update
event update

GPGPU-Sim PTX: cudaLaunch for 0x0x4045e0 (mode=performance simulation) on stream 0
GPGPU-Sim PTX: pushing kernel '_Z27performStreamCollide_kernelPfS_' to stream 0, gridDim= (120,150,1) blockDim = (120,1,1) 
event update
event update

GPGPU-Sim PTX: cudaLaunch for 0x0x4045e0 (mode=performance simulation) on stream 0
GPGPU-Sim PTX: pushing kernel '_Z27performStreamCollide_kernelPfS_' to stream 0, gridDim= (120,150,1) blockDim = (120,1,1) 
event update
event update

GPGPU-Sim PTX: cudaLaunch for 0x0x4045e0 (mode=performance simulation) on stream 0
GPGPU-Sim PTX: pushing kernel '_Z27performStreamCollide_kernelPfS_' to stream 0, gridDim= (120,150,1) blockDim = (120,1,1) 
event update
event update

GPGPU-Sim PTX: cudaLaunch for 0x0x4045e0 (mode=performance simulation) on stream 0
GPGPU-Sim PTX: pushing kernel '_Z27performStreamCollide_kernelPfS_' to stream 0, gridDim= (120,150,1) blockDim = (120,1,1) 
event update
event update

GPGPU-Sim PTX: cudaLaunch for 0x0x4045e0 (mode=performance simulation) on stream 0
GPGPU-Sim PTX: pushing kernel '_Z27performStreamCollide_kernelPfS_' to stream 0, gridDim= (120,150,1) blockDim = (120,1,1) 
event update
event update

GPGPU-Sim PTX: cudaLaunch for 0x0x4045e0 (mode=performance simulation) on stream 0
GPGPU-Sim PTX: pushing kernel '_Z27performStreamCollide_kernelPfS_' to stream 0, gridDim= (120,150,1) blockDim = (120,1,1) 
event update
event update

GPGPU-Sim PTX: cudaLaunch for 0x0x4045e0 (mode=performance simulation) on stream 0
GPGPU-Sim PTX: pushing kernel '_Z27performStreamCollide_kernelPfS_' to stream 0, gridDim= (120,150,1) blockDim = (120,1,1) 
event update
event update

GPGPU-Sim PTX: cudaLaunch for 0x0x4045e0 (mode=performance simulation) on stream 0
GPGPU-Sim PTX: pushing kernel '_Z27performStreamCollide_kernelPfS_' to stream 0, gridDim= (120,150,1) blockDim = (120,1,1) 
event update
event update

GPGPU-Sim PTX: cudaLaunch for 0x0x4045e0 (mode=performance simulation) on stream 0
GPGPU-Sim PTX: pushing kernel '_Z27performStreamCollide_kernelPfS_' to stream 0, gridDim= (120,150,1) blockDim = (120,1,1) 
event update
event update

GPGPU-Sim PTX: cudaLaunch for 0x0x4045e0 (mode=performance simulation) on stream 0
GPGPU-Sim PTX: pushing kernel '_Z27performStreamCollide_kernelPfS_' to stream 0, gridDim= (120,150,1) blockDim = (120,1,1) 
event update
event update

GPGPU-Sim PTX: cudaLaunch for 0x0x4045e0 (mode=performance simulation) on stream 0
GPGPU-Sim PTX: pushing kernel '_Z27performStreamCollide_kernelPfS_' to stream 0, gridDim= (120,150,1) blockDim = (120,1,1) 
event update
event update

GPGPU-Sim PTX: cudaLaunch for 0x0x4045e0 (mode=performance simulation) on stream 0
GPGPU-Sim PTX: pushing kernel '_Z27performStreamCollide_kernelPfS_' to stream 0, gridDim= (120,150,1) blockDim = (120,1,1) 
event update
event update

GPGPU-Sim PTX: cudaLaunch for 0x0x4045e0 (mode=performance simulation) on stream 0
GPGPU-Sim PTX: pushing kernel '_Z27performStreamCollide_kernelPfS_' to stream 0, gridDim= (120,150,1) blockDim = (120,1,1) 
event update
event update

GPGPU-Sim PTX: cudaLaunch for 0x0x4045e0 (mode=performance simulation) on stream 0
GPGPU-Sim PTX: pushing kernel '_Z27performStreamCollide_kernelPfS_' to stream 0, gridDim= (120,150,1) blockDim = (120,1,1) 
event update
timestep: 64
event update

GPGPU-Sim PTX: cudaLaunch for 0x0x4045e0 (mode=performance simulation) on stream 0
GPGPU-Sim PTX: pushing kernel '_Z27performStreamCollide_kernelPfS_' to stream 0, gridDim= (120,150,1) blockDim = (120,1,1) 
event update
event update

GPGPU-Sim PTX: cudaLaunch for 0x0x4045e0 (mode=performance simulation) on stream 0
GPGPU-Sim PTX: pushing kernel '_Z27performStreamCollide_kernelPfS_' to stream 0, gridDim= (120,150,1) blockDim = (120,1,1) 
event update
event update

GPGPU-Sim PTX: cudaLaunch for 0x0x4045e0 (mode=performance simulation) on stream 0
GPGPU-Sim PTX: pushing kernel '_Z27performStreamCollide_kernelPfS_' to stream 0, gridDim= (120,150,1) blockDim = (120,1,1) 
event update
event update

GPGPU-Sim PTX: cudaLaunch for 0x0x4045e0 (mode=performance simulation) on stream 0
GPGPU-Sim PTX: pushing kernel '_Z27performStreamCollide_kernelPfS_' to stream 0, gridDim= (120,150,1) blockDim = (120,1,1) 
event update
event update

GPGPU-Sim PTX: cudaLaunch for 0x0x4045e0 (mode=performance simulation) on stream 0
GPGPU-Sim PTX: pushing kernel '_Z27performStreamCollide_kernelPfS_' to stream 0, gridDim= (120,150,1) blockDim = (120,1,1) 
event update
event update

GPGPU-Sim PTX: cudaLaunch for 0x0x4045e0 (mode=performance simulation) on stream 0
GPGPU-Sim PTX: pushing kernel '_Z27performStreamCollide_kernelPfS_' to stream 0, gridDim= (120,150,1) blockDim = (120,1,1) 
event update
event update

GPGPU-Sim PTX: cudaLaunch for 0x0x4045e0 (mode=performance simulation) on stream 0
GPGPU-Sim PTX: pushing kernel '_Z27performStreamCollide_kernelPfS_' to stream 0, gridDim= (120,150,1) blockDim = (120,1,1) 
event update
event update

GPGPU-Sim PTX: cudaLaunch for 0x0x4045e0 (mode=performance simulation) on stream 0
GPGPU-Sim PTX: pushing kernel '_Z27performStreamCollide_kernelPfS_' to stream 0, gridDim= (120,150,1) blockDim = (120,1,1) 
event update
event update

GPGPU-Sim PTX: cudaLaunch for 0x0x4045e0 (mode=performance simulation) on stream 0
GPGPU-Sim PTX: pushing kernel '_Z27performStreamCollide_kernelPfS_' to stream 0, gridDim= (120,150,1) blockDim = (120,1,1) 
event update
event update

GPGPU-Sim PTX: cudaLaunch for 0x0x4045e0 (mode=performance simulation) on stream 0
GPGPU-Sim PTX: pushing kernel '_Z27performStreamCollide_kernelPfS_' to stream 0, gridDim= (120,150,1) blockDim = (120,1,1) 
event update
event update

GPGPU-Sim PTX: cudaLaunch for 0x0x4045e0 (mode=performance simulation) on stream 0
GPGPU-Sim PTX: pushing kernel '_Z27performStreamCollide_kernelPfS_' to stream 0, gridDim= (120,150,1) blockDim = (120,1,1) 
event update
event update

GPGPU-Sim PTX: cudaLaunch for 0x0x4045e0 (mode=performance simulation) on stream 0
GPGPU-Sim PTX: pushing kernel '_Z27performStreamCollide_kernelPfS_' to stream 0, gridDim= (120,150,1) blockDim = (120,1,1) 
event update
event update

GPGPU-Sim PTX: cudaLaunch for 0x0x4045e0 (mode=performance simulation) on stream 0
GPGPU-Sim PTX: pushing kernel '_Z27performStreamCollide_kernelPfS_' to stream 0, gridDim= (120,150,1) blockDim = (120,1,1) 
event update
event update

GPGPU-Sim PTX: cudaLaunch for 0x0x4045e0 (mode=performance simulation) on stream 0
GPGPU-Sim PTX: pushing kernel '_Z27performStreamCollide_kernelPfS_' to stream 0, gridDim= (120,150,1) blockDim = (120,1,1) 
event update
event update

GPGPU-Sim PTX: cudaLaunch for 0x0x4045e0 (mode=performance simulation) on stream 0
GPGPU-Sim PTX: pushing kernel '_Z27performStreamCollide_kernelPfS_' to stream 0, gridDim= (120,150,1) blockDim = (120,1,1) 
event update
event update

GPGPU-Sim PTX: cudaLaunch for 0x0x4045e0 (mode=performance simulation) on stream 0
GPGPU-Sim PTX: pushing kernel '_Z27performStreamCollide_kernelPfS_' to stream 0, gridDim= (120,150,1) blockDim = (120,1,1) 
event update
event update

GPGPU-Sim PTX: cudaLaunch for 0x0x4045e0 (mode=performance simulation) on stream 0
GPGPU-Sim PTX: pushing kernel '_Z27performStreamCollide_kernelPfS_' to stream 0, gridDim= (120,150,1) blockDim = (120,1,1) 
event update
event update

GPGPU-Sim PTX: cudaLaunch for 0x0x4045e0 (mode=performance simulation) on stream 0
GPGPU-Sim PTX: pushing kernel '_Z27performStreamCollide_kernelPfS_' to stream 0, gridDim= (120,150,1) blockDim = (120,1,1) 
event update
event update

GPGPU-Sim PTX: cudaLaunch for 0x0x4045e0 (mode=performance simulation) on stream 0
GPGPU-Sim PTX: pushing kernel '_Z27performStreamCollide_kernelPfS_' to stream 0, gridDim= (120,150,1) blockDim = (120,1,1) 
event update
event update

GPGPU-Sim PTX: cudaLaunch for 0x0x4045e0 (mode=performance simulation) on stream 0
GPGPU-Sim PTX: pushing kernel '_Z27performStreamCollide_kernelPfS_' to stream 0, gridDim= (120,150,1) blockDim = (120,1,1) 
event update
event update

GPGPU-Sim PTX: cudaLaunch for 0x0x4045e0 (mode=performance simulation) on stream 0
GPGPU-Sim PTX: pushing kernel '_Z27performStreamCollide_kernelPfS_' to stream 0, gridDim= (120,150,1) blockDim = (120,1,1) 
event update
event update

GPGPU-Sim PTX: cudaLaunch for 0x0x4045e0 (mode=performance simulation) on stream 0
GPGPU-Sim PTX: pushing kernel '_Z27performStreamCollide_kernelPfS_' to stream 0, gridDim= (120,150,1) blockDim = (120,1,1) 
event update
event update

GPGPU-Sim PTX: cudaLaunch for 0x0x4045e0 (mode=performance simulation) on stream 0
GPGPU-Sim PTX: pushing kernel '_Z27performStreamCollide_kernelPfS_' to stream 0, gridDim= (120,150,1) blockDim = (120,1,1) 
event update
event update

GPGPU-Sim PTX: cudaLaunch for 0x0x4045e0 (mode=performance simulation) on stream 0
GPGPU-Sim PTX: pushing kernel '_Z27performStreamCollide_kernelPfS_' to stream 0, gridDim= (120,150,1) blockDim = (120,1,1) 
event update
event update

GPGPU-Sim PTX: cudaLaunch for 0x0x4045e0 (mode=performance simulation) on stream 0
GPGPU-Sim PTX: pushing kernel '_Z27performStreamCollide_kernelPfS_' to stream 0, gridDim= (120,150,1) blockDim = (120,1,1) 
event update
event update

GPGPU-Sim PTX: cudaLaunch for 0x0x4045e0 (mode=performance simulation) on stream 0
GPGPU-Sim PTX: pushing kernel '_Z27performStreamCollide_kernelPfS_' to stream 0, gridDim= (120,150,1) blockDim = (120,1,1) 
event update
event update

GPGPU-Sim PTX: cudaLaunch for 0x0x4045e0 (mode=performance simulation) on stream 0
GPGPU-Sim PTX: pushing kernel '_Z27performStreamCollide_kernelPfS_' to stream 0, gridDim= (120,150,1) blockDim = (120,1,1) 
event update
event update

GPGPU-Sim PTX: cudaLaunch for 0x0x4045e0 (mode=performance simulation) on stream 0
GPGPU-Sim PTX: pushing kernel '_Z27performStreamCollide_kernelPfS_' to stream 0, gridDim= (120,150,1) blockDim = (120,1,1) 
event update
event update

GPGPU-Sim PTX: cudaLaunch for 0x0x4045e0 (mode=performance simulation) on stream 0
GPGPU-Sim PTX: pushing kernel '_Z27performStreamCollide_kernelPfS_' to stream 0, gridDim= (120,150,1) blockDim = (120,1,1) 
event update
event update

GPGPU-Sim PTX: cudaLaunch for 0x0x4045e0 (mode=performance simulation) on stream 0
GPGPU-Sim PTX: pushing kernel '_Z27performStreamCollide_kernelPfS_' to stream 0, gridDim= (120,150,1) blockDim = (120,1,1) 
event update
event update

GPGPU-Sim PTX: cudaLaunch for 0x0x4045e0 (mode=performance simulation) on stream 0
GPGPU-Sim PTX: pushing kernel '_Z27performStreamCollide_kernelPfS_' to stream 0, gridDim= (120,150,1) blockDim = (120,1,1) 
event update
event update

GPGPU-Sim PTX: cudaLaunch for 0x0x4045e0 (mode=performance simulation) on stream 0
GPGPU-Sim PTX: pushing kernel '_Z27performStreamCollide_kernelPfS_' to stream 0, gridDim= (120,150,1) blockDim = (120,1,1) 
event update
event update

GPGPU-Sim PTX: cudaLaunch for 0x0x4045e0 (mode=performance simulation) on stream 0
GPGPU-Sim PTX: pushing kernel '_Z27performStreamCollide_kernelPfS_' to stream 0, gridDim= (120,150,1) blockDim = (120,1,1) 
event update
event update

GPGPU-Sim PTX: cudaLaunch for 0x0x4045e0 (mode=performance simulation) on stream 0
GPGPU-Sim PTX: pushing kernel '_Z27performStreamCollide_kernelPfS_' to stream 0, gridDim= (120,150,1) blockDim = (120,1,1) 
event update
event update

GPGPU-Sim PTX: cudaLaunch for 0x0x4045e0 (mode=performance simulation) on stream 0
GPGPU-Sim PTX: pushing kernel '_Z27performStreamCollide_kernelPfS_' to stream 0, gridDim= (120,150,1) blockDim = (120,1,1) 
event update
event update

GPGPU-Sim PTX: cudaLaunch for 0x0x4045e0 (mode=performance simulation) on stream 0
GPGPU-Sim PTX: pushing kernel '_Z27performStreamCollide_kernelPfS_' to stream 0, gridDim= (120,150,1) blockDim = (120,1,1) 
event update
LBM_allocateGrid: allocated 185.2 MByte
GPGPU-Sim API: cudaEventSynchronize ** waiting for event
GPGPU-Sim API: cudaEventSynchronize ** event detected
GPGPU-Sim: synchronize waiting for inactive GPU simulation
GPGPU-Sim API: Stream Manager State
GPGPU-Sim: detected inactive GPU simulation thread
