

        *** GPGPU-Sim Simulator Version 3.2.2  [build 0] ***


GPGPU-Sim PTX: simulation mode 0 (can change with PTX_SIM_MODE_FUNC environment variable:
               1=functional simulation only, 0=detailed performance simulator)
GPGPU-Sim: Configuration options:

-network_mode                           1 # Interconnection network mode
-inter_config_file   config_fermi_islip.icnt # Interconnection network config file
-gpgpu_ptx_use_cuobjdump                    1 # Use cuobjdump to extract ptx and sass from binaries
-gpgpu_experimental_lib_support                    0 # Try to extract code from cuda libraries [Broken because of unknown cudaGetExportTable]
-gpgpu_ptx_convert_to_ptxplus                    0 # Convert SASS (native ISA) to ptxplus and run ptxplus
-gpgpu_ptx_force_max_capability                   20 # Force maximum compute capability
-gpgpu_ptx_inst_debug_to_file                    0 # Dump executed instructions' debug information to file
-gpgpu_ptx_inst_debug_file       inst_debug.txt # Executed instructions' debug output file
-gpgpu_ptx_inst_debug_thread_uid                    1 # Thread UID for executed instructions' debug output
-gpgpu_simd_model                       1 # 1 = post-dominator
-gpgpu_shader_core_pipeline              1536:32 # shader core pipeline config, i.e., {<nthread>:<warpsize>}
-gpgpu_tex_cache:l1  4:128:24,L:R:m:N:L,F:128:4,128:2 # per-shader L1 texture cache  (READ-ONLY) config  {<nsets>:<bsize>:<assoc>,<rep>:<wr>:<alloc>:<wr_alloc>,<mshr>:<N>:<merge>,<mq>:<rf>}
-gpgpu_const_cache:l1 64:64:2,L:R:f:N:L,A:2:32,4 # per-shader L1 constant memory cache  (READ-ONLY) config  {<nsets>:<bsize>:<assoc>,<rep>:<wr>:<alloc>:<wr_alloc>,<mshr>:<N>:<merge>,<mq>} 
-gpgpu_cache:il1     4:128:4,L:R:f:N:L,A:2:32,4 # shader L1 instruction cache config  {<nsets>:<bsize>:<assoc>,<rep>:<wr>:<alloc>:<wr_alloc>,<mshr>:<N>:<merge>,<mq>} 
-gpgpu_cache:dl1     32:128:4,L:L:m:N:H,A:32:8,8 # per-shader L1 data cache config  {<nsets>:<bsize>:<assoc>,<rep>:<wr>:<alloc>:<wr_alloc>,<mshr>:<N>:<merge>,<mq> | none}
-gpgpu_cache:dl1PrefL1                 none # per-shader L1 data cache config  {<nsets>:<bsize>:<assoc>,<rep>:<wr>:<alloc>:<wr_alloc>,<mshr>:<N>:<merge>,<mq> | none}
-gpgpu_cache:dl1PreShared                 none # per-shader L1 data cache config  {<nsets>:<bsize>:<assoc>,<rep>:<wr>:<alloc>:<wr_alloc>,<mshr>:<N>:<merge>,<mq> | none}
-gmem_skip_L1D                          0 # global memory access skip L1D cache (implements -Xptxas -dlcm=cg, default=no skip)
-gpgpu_perfect_mem                      0 # enable perfect memory mode (no cache miss)
-n_regfile_gating_group                    4 # group of lanes that should be read/written together)
-gpgpu_clock_gated_reg_file                    0 # enable clock gated reg file for power calculations
-gpgpu_clock_gated_lanes                    0 # enable clock gated lanes for power calculations
-gpgpu_shader_registers                32768 # Number of registers per shader core. Limits number of concurrent CTAs. (default 8192)
-gpgpu_shader_cta                       8 # Maximum number of concurrent CTAs in shader (default 8)
-gpgpu_num_cta_barriers                   16 # Maximum number of named barriers per CTA (default 16)
-gpgpu_n_clusters                      15 # number of processing clusters
-gpgpu_n_cores_per_cluster                    1 # number of simd cores per cluster
-gpgpu_n_cluster_ejection_buffer_size                    8 # number of packets in ejection buffer
-gpgpu_n_ldst_response_buffer_size                    2 # number of response packets in ld/st unit ejection buffer
-gpgpu_shmem_size                   16384 # Size of shared memory per shader core (default 16kB)
-gpgpu_shmem_size                   49152 # Size of shared memory per shader core (default 16kB)
-gpgpu_shmem_size_PrefL1                16384 # Size of shared memory per shader core (default 16kB)
-gpgpu_shmem_size_PrefShared                16384 # Size of shared memory per shader core (default 16kB)
-gpgpu_shmem_num_banks                   32 # Number of banks in the shared memory in each shader core (default 16)
-gpgpu_shmem_limited_broadcast                    0 # Limit shared memory to do one broadcast per cycle (default on)
-gpgpu_shmem_warp_parts                    1 # Number of portions a warp is divided into for shared memory bank conflict check 
-gpgpu_warpdistro_shader                   -1 # Specify which shader core to collect the warp size distribution from
-gpgpu_warp_issue_shader                    0 # Specify which shader core to collect the warp issue distribution from
-gpgpu_local_mem_map                    1 # Mapping from local memory space address to simulated GPU physical address space (default = enabled)
-gpgpu_num_reg_banks                   16 # Number of register banks (default = 8)
-gpgpu_reg_bank_use_warp_id                    0 # Use warp ID in mapping registers to banks (default = off)
-gpgpu_operand_collector_num_units_sp                    6 # number of collector units (default = 4)
-gpgpu_operand_collector_num_units_sfu                    8 # number of collector units (default = 4)
-gpgpu_operand_collector_num_units_mem                    2 # number of collector units (default = 2)
-gpgpu_operand_collector_num_units_gen                    0 # number of collector units (default = 0)
-gpgpu_operand_collector_num_in_ports_sp                    2 # number of collector unit in ports (default = 1)
-gpgpu_operand_collector_num_in_ports_sfu                    1 # number of collector unit in ports (default = 1)
-gpgpu_operand_collector_num_in_ports_mem                    1 # number of collector unit in ports (default = 1)
-gpgpu_operand_collector_num_in_ports_gen                    0 # number of collector unit in ports (default = 0)
-gpgpu_operand_collector_num_out_ports_sp                    2 # number of collector unit in ports (default = 1)
-gpgpu_operand_collector_num_out_ports_sfu                    1 # number of collector unit in ports (default = 1)
-gpgpu_operand_collector_num_out_ports_mem                    1 # number of collector unit in ports (default = 1)
-gpgpu_operand_collector_num_out_ports_gen                    0 # number of collector unit in ports (default = 0)
-gpgpu_coalesce_arch                   13 # Coalescing arch (default = 13, anything else is off for now)
-gpgpu_num_sched_per_core                    2 # Number of warp schedulers per core
-gpgpu_max_insn_issue_per_warp                    1 # Max number of instructions that can be issued per warp in one cycle by scheduler
-gpgpu_simt_core_sim_order                    1 # Select the simulation order of cores in a cluster (0=Fix, 1=Round-Robin)
-gpgpu_pipeline_widths        2,1,1,2,1,1,2 # Pipeline widths ID_OC_SP,ID_OC_SFU,ID_OC_MEM,OC_EX_SP,OC_EX_SFU,OC_EX_MEM,EX_WB
-gpgpu_num_sp_units                     2 # Number of SP units (default=1)
-gpgpu_num_sfu_units                    1 # Number of SF units (default=1)
-gpgpu_num_mem_units                    1 # Number if ldst units (default=1) WARNING: not hooked up to anything
-gpgpu_scheduler                      lrr # Scheduler configuration: < lrr | gto | two_level_active > If two_level_active:<num_active_warps>:<inner_prioritization>:<outer_prioritization>For complete list of prioritization values see shader.h enum scheduler_prioritization_typeDefault: gto
-gpgpu_dram_scheduler                    1 # 0 = fifo, 1 = FR-FCFS (defaul)
-gpgpu_dram_partition_queues              8:8:8:8 # i2$:$2d:d2$:$2i
-l2_ideal                               0 # Use a ideal L2 cache that always hit
-gpgpu_cache:dl2     64:128:8,L:B:m:W:L,A:32:4,4:0,32 # unified banked L2 data cache config  {<nsets>:<bsize>:<assoc>,<rep>:<wr>:<alloc>:<wr_alloc>,<mshr>:<N>:<merge>,<mq>}
-gpgpu_cache:dl2_texture_only                    0 # L2 cache used for texture only
-gpgpu_n_mem                            6 # number of memory modules (e.g. memory controllers) in gpu
-gpgpu_n_sub_partition_per_mchannel                    2 # number of memory subpartition in each memory module
-gpgpu_n_mem_per_ctrlr                    2 # number of memory chips per memory controller
-gpgpu_memlatency_stat                   14 # track and display latency statistics 0x2 enables MC, 0x4 enables queue logs
-gpgpu_frfcfs_dram_sched_queue_size                   16 # 0 = unlimited (default); # entries per chip
-gpgpu_dram_return_queue_size                  116 # 0 = unlimited (default); # entries per chip
-gpgpu_dram_buswidth                    4 # default = 4 bytes (8 bytes per cycle at DDR)
-gpgpu_dram_burst_length                    8 # Burst length of each DRAM request (default = 4 data bus cycle)
-dram_data_command_freq_ratio                    4 # Frequency ratio between DRAM data bus and command bus (default = 2 times, i.e. DDR)
-gpgpu_dram_timing_opt nbk=16:CCD=2:RRD=6:RCD=12:RAS=28:RP=12:RC=40: CL=12:WL=4:CDLR=5:WR=12:nbkgrp=4:CCDL=3:RTPL=2 # DRAM timing parameters = {nbk:tCCD:tRRD:tRCD:tRAS:tRP:tRC:CL:WL:tCDLR:tWR:nbkgrp:tCCDL:tRTPL}
-rop_latency                          120 # ROP queue latency (default 85)
-dram_latency                         100 # DRAM latency (default 30)
-gpgpu_mem_addr_mapping dramid@8;00000000.00000000.00000000.00000000.0000RRRR.RRRRRRRR.BBBCCCCB.CCSSSSSS # mapping memory address to dram model {dramid@<start bit>;<memory address map>}
-gpgpu_mem_addr_test                    0 # run sweep test to check address mapping for aliased address
-gpgpu_mem_address_mask                    1 # 0 = old addressing mask, 1 = new addressing mask, 2 = new add. mask + flipped bank sel and chip sel bits
-gpuwattch_xml_file  gpuwattch_gtx480.xml # GPUWattch XML file
-power_simulation_enabled                    0 # Turn on power simulator (1=On, 0=Off)
-power_per_cycle_dump                    0 # Dump detailed power output each cycle
-power_trace_enabled                    0 # produce a file for the power trace (1=On, 0=Off)
-power_trace_zlevel                     6 # Compression level of the power trace output log (0=no comp, 9=highest)
-steady_power_levels_enabled                    0 # produce a file for the steady power levels (1=On, 0=Off)
-steady_state_definition                  8:4 # allowed deviation:number of samples
-gpgpu_max_cycle                        0 # terminates gpu simulation early (0 = no limit)
-gpgpu_max_insn                         0 # terminates gpu simulation early (0 = no limit)
-gpgpu_max_cta                          0 # terminates gpu simulation early (0 = no limit)
-gpgpu_runtime_stat             500000000 # display runtime statistics such as dram utilization {<freq>:<flag>}
-liveness_message_freq                    1 # Minimum number of seconds between simulation liveness messages (0 = always print)
-gpgpu_flush_l1_cache                    0 # Flush L1 cache at the end of each kernel call
-gpgpu_flush_l2_cache                    0 # Flush L2 cache at the end of each kernel call
-gpgpu_deadlock_detect                    1 # Stop the simulation at deadlock (1=on (default), 0=off)
-gpgpu_ptx_instruction_classification                    0 # if enabled will classify ptx instruction types per kernel (Max 255 kernels now)
-gpgpu_ptx_sim_mode                     0 # Select between Performance (default) or Functional simulation (1)
-gpgpu_clock_domains 730.0:730.0:730.0:950.0 # Clock Domain Frequencies in MhZ {<Core Clock>:<ICNT Clock>:<L2 Clock>:<DRAM Clock>}
-gpgpu_max_concurrent_kernel                    8 # maximum kernels that can run concurrently on GPU
-gpgpu_cflog_interval                    0 # Interval between each snapshot in control flow logger
-visualizer_enabled                     0 # Turn on visualizer output (1=On, 0=Off)
-visualizer_outputfile                 NULL # Specifies the output log file for visualizer
-visualizer_zlevel                      6 # Compression level of the visualizer output log (0=no comp, 9=highest)
-trace_enabled                          0 # Turn on traces
-trace_components                    none # comma seperated list of traces to enable. Complete list found in trace_streams.tup. Default none
-trace_sampling_core                    0 # The core which is printed using CORE_DPRINTF. Default 0
-trace_sampling_memory_partition                   -1 # The memory partition which is printed using MEMPART_DPRINTF. Default -1 (i.e. all)
-enable_ptx_file_line_stats                    0 # Turn on PTX source line statistic profiling. (1 = On)
-ptx_line_stats_filename gpgpu_inst_stats.txt # Output file for PTX source line statistics.
-save_embedded_ptx                      0 # saves ptx files embedded in binary as <n>.ptx
-keep                                   0 # keep intermediate files created by GPGPU-Sim when interfacing with external programs
-gpgpu_ptx_save_converted_ptxplus                    0 # Saved converted ptxplus to a file
-ptx_opcode_latency_int         4,13,4,5,145 # Opcode latencies for integers <ADD,MAX,MUL,MAD,DIV>Default 1,1,19,25,145
-ptx_opcode_latency_fp          4,13,4,5,39 # Opcode latencies for single precision floating points <ADD,MAX,MUL,MAD,DIV>Default 1,1,1,1,30
-ptx_opcode_latency_dp         8,19,8,8,330 # Opcode latencies for double precision floating points <ADD,MAX,MUL,MAD,DIV>Default 8,8,8,8,335
-ptx_opcode_initiation_int            1,2,2,1,8 # Opcode initiation intervals for integers <ADD,MAX,MUL,MAD,DIV>Default 1,1,4,4,32
-ptx_opcode_initiation_fp            1,2,1,1,4 # Opcode initiation intervals for single precision floating points <ADD,MAX,MUL,MAD,DIV>Default 1,1,1,1,5
-ptx_opcode_initiation_dp         8,16,8,8,130 # Opcode initiation intervals for double precision floating points <ADD,MAX,MUL,MAD,DIV>Default 8,8,8,8,130
DRAM Timing Options:
nbk                                    16 # number of banks
CCD                                     2 # column to column delay
RRD                                     6 # minimal delay between activation of rows in different banks
RCD                                    12 # row to column delay
RAS                                    28 # time needed to activate row
RP                                     12 # time needed to precharge (deactivate) row
RC                                     40 # row cycle time
CDLR                                    5 # switching from write to read (changes tWTR)
WR                                     12 # last data-in to row precharge
CL                                     12 # CAS latency
WL                                      4 # Write latency
nbkgrp                                  4 # number of bank groups
CCDL                                    3 # column to column delay between accesses to different bank groups
RTPL                                    2 # read to precharge delay between accesses to different bank groups
Total number of memory sub partition = 12
addr_dec_mask[CHIP]  = 0000000000000000 	high:64 low:0
addr_dec_mask[BK]    = 000000000000e100 	high:16 low:8
addr_dec_mask[ROW]   = 000000000fff0000 	high:28 low:16
addr_dec_mask[COL]   = 0000000000001eff 	high:13 low:0
addr_dec_mask[BURST] = 000000000000003f 	high:6 low:0
sub_partition_id_mask = 0000000000000100
GPGPU-Sim uArch: clock freqs: 730000000.000000:730000000.000000:730000000.000000:950000000.000000
GPGPU-Sim uArch: clock periods: 0.00000000136986301370:0.00000000136986301370:0.00000000136986301370:0.00000000105263157895
*** Initializing Memory Statistics ***
GPGPU-Sim uArch: interconnect node map (shaderID+MemID to icntID)
GPGPU-Sim uArch: Memory nodes ID start from index: 15
GPGPU-Sim uArch:    0   1   2   3   4
GPGPU-Sim uArch:    5   6   7   8   9
GPGPU-Sim uArch:   10  11  12  13  14
GPGPU-Sim uArch:   15  16  17  18  19
GPGPU-Sim uArch:   20  21  22  23  24
GPGPU-Sim uArch:   25  26
GPGPU-Sim uArch: interconnect node reverse map (icntID to shaderID+MemID)
GPGPU-Sim uArch: Memory nodes start from ID: 15
GPGPU-Sim uArch:    0   1   2   3   4
GPGPU-Sim uArch:    5   6   7   8   9
GPGPU-Sim uArch:   10  11  12  13  14
GPGPU-Sim uArch:   15  16  17  18  19
GPGPU-Sim uArch:   20  21  22  23  24
GPGPU-Sim uArch:   25  26
66df4afeed01ce9b1f6a9eedcd121282  /home/z/Workspace/model_gpu_cache/build/mri-g_sim
GPGPU-Sim uArch: performance model initialization complete.
GPGPU-Sim PTX: __cudaRegisterFatBinary, fat_cubin_handle = 1, filename=main.cu
self exe links to: /home/z/Workspace/model_gpu_cache/build/mri-g_sim
Running md5sum using "md5sum /home/z/Workspace/model_gpu_cache/build/mri-g_sim "
Running cuobjdump using "$CUDA_INSTALL_PATH/bin/cuobjdump -ptx -elf -sass /home/z/Workspace/model_gpu_cache/build/mri-g_sim > _cuobjdump_complete_output_I6jSjJ"
Parsing file _cuobjdump_complete_output_I6jSjJ
######### cuobjdump parser ########
## Adding new section ELF
Adding arch: sm_20
Adding identifier: main.cu
## Adding new section PTX
Adding ptx filename: _cuobjdump_1.ptx
Adding arch: sm_20
Adding identifier: main.cu
## Adding new section ELF
Adding arch: sm_20
Adding identifier: CUDA_interface.cu
## Adding new section PTX
Adding ptx filename: _cuobjdump_2.ptx
Adding arch: sm_20
Adding identifier: CUDA_interface.cu
## Adding new section ELF
Adding arch: sm_20
Adding identifier: scanLargeArray.cu
## Adding new section PTX
Adding ptx filename: _cuobjdump_3.ptx
Adding arch: sm_20
Adding identifier: scanLargeArray.cu
## Adding new section ELF
Adding arch: sm_20
Adding identifier: sort.cu
## Adding new section PTX
Adding ptx filename: _cuobjdump_4.ptx
Adding arch: sm_20
Adding identifier: sort.cu
Done parsing!!!
GPGPU-Sim PTX: __cudaRegisterFatBinary, fat_cubin_handle = 2, filename=CUDA_interface.cu
GPGPU-Sim PTX: __cudaRegisterFunction _Z12gridding_GPU17sampleArrayStructPjP6float2Pff : hostFun 0x0x405910, fat_cubin_handle = 2
GPGPU-Sim PTX: allocating stack frame region for .param "__cudaretf__Z12kernel_valuef" from 0x0 to 0x4
GPGPU-Sim PTX: allocating stack frame region for .param "__cudaparmf1__Z12kernel_valuef" from 0x4 to 0x8
GPGPU-Sim PTX: instruction assembly for function '_Z12kernel_valuef'...   done.
GPGPU-Sim PTX: finding reconvergence points for '_Z12kernel_valuef'...
GPGPU-Sim PTX: Finding dominators for '_Z12kernel_valuef'...
GPGPU-Sim PTX: Finding immediate dominators for '_Z12kernel_valuef'...
GPGPU-Sim PTX: Finding postdominators for '_Z12kernel_valuef'...
GPGPU-Sim PTX: Finding immediate postdominators for '_Z12kernel_valuef'...
GPGPU-Sim PTX: pre-decoding instructions for '_Z12kernel_valuef'...
GPGPU-Sim PTX: reconvergence points for _Z12kernel_valuef...
GPGPU-Sim PTX: ... end of reconvergence points for _Z12kernel_valuef
GPGPU-Sim PTX: ... done pre-decoding instructions for '_Z12kernel_valuef'.
GPGPU-Sim PTX: allocating constant region for "size_xy_c" from 0x100 to 0x104 (global memory space) 1
GPGPU-Sim PTX: allocating constant region for "gridSize_c" from 0x180 to 0x18c (global memory space) 2
GPGPU-Sim PTX: instruction assembly for function '_Z14binning_kerneljP20ReconstructionSamplePjS1_S1_jj'...   done.
GPGPU-Sim PTX: finding reconvergence points for '_Z14binning_kerneljP20ReconstructionSamplePjS1_S1_jj'...
GPGPU-Sim PTX: Finding dominators for '_Z14binning_kerneljP20ReconstructionSamplePjS1_S1_jj'...
GPGPU-Sim PTX: Finding immediate dominators for '_Z14binning_kerneljP20ReconstructionSamplePjS1_S1_jj'...
GPGPU-Sim PTX: Finding postdominators for '_Z14binning_kerneljP20ReconstructionSamplePjS1_S1_jj'...
GPGPU-Sim PTX: Finding immediate postdominators for '_Z14binning_kerneljP20ReconstructionSamplePjS1_S1_jj'...
GPGPU-Sim PTX: pre-decoding instructions for '_Z14binning_kerneljP20ReconstructionSamplePjS1_S1_jj'...
GPGPU-Sim PTX: reconvergence points for _Z14binning_kerneljP20ReconstructionSamplePjS1_S1_jj...
GPGPU-Sim PTX:  1 (potential) branch divergence @  PC=0x188 (_2.ptx:130) @%p1 bra $Lt_1_2562;
GPGPU-Sim PTX:    immediate post dominator      @  PC=0x2e8 (_2.ptx:187) exit;
GPGPU-Sim PTX:  2 (potential) branch divergence @  PC=0x248 (_2.ptx:155) @%p2 bra $Lt_1_3330;
GPGPU-Sim PTX:    immediate post dominator      @  PC=0x2b0 (_2.ptx:177) mul.lo.u64 %rd9, %rd1, 4;
GPGPU-Sim PTX:  3 (potential) branch divergence @  PC=0x270 (_2.ptx:161) @%p3 bra $Lt_1_3842;
GPGPU-Sim PTX:    immediate post dominator      @  PC=0x2b0 (_2.ptx:177) mul.lo.u64 %rd9, %rd1, 4;
GPGPU-Sim PTX:  4 (potential) branch divergence @  PC=0x280 (_2.ptx:164) bra.uni $Lt_1_3074;
GPGPU-Sim PTX:    immediate post dominator      @  PC=0x2b0 (_2.ptx:177) mul.lo.u64 %rd9, %rd1, 4;
GPGPU-Sim PTX:  5 (potential) branch divergence @  PC=0x2a0 (_2.ptx:171) bra.uni $Lt_1_3074;
GPGPU-Sim PTX:    immediate post dominator      @  PC=0x2b0 (_2.ptx:177) mul.lo.u64 %rd9, %rd1, 4;
GPGPU-Sim PTX: ... end of reconvergence points for _Z14binning_kerneljP20ReconstructionSamplePjS1_S1_jj
GPGPU-Sim PTX: ... done pre-decoding instructions for '_Z14binning_kerneljP20ReconstructionSamplePjS1_S1_jj'.
GPGPU-Sim PTX: instruction assembly for function '_Z14reorder_kerneliPjP20ReconstructionSample17sampleArrayStruct'...   done.
GPGPU-Sim PTX: finding reconvergence points for '_Z14reorder_kerneliPjP20ReconstructionSample17sampleArrayStruct'...
GPGPU-Sim PTX: Finding dominators for '_Z14reorder_kerneliPjP20ReconstructionSample17sampleArrayStruct'...
GPGPU-Sim PTX: Finding immediate dominators for '_Z14reorder_kerneliPjP20ReconstructionSample17sampleArrayStruct'...
GPGPU-Sim PTX: Finding postdominators for '_Z14reorder_kerneliPjP20ReconstructionSample17sampleArrayStruct'...
GPGPU-Sim PTX: Finding immediate postdominators for '_Z14reorder_kerneliPjP20ReconstructionSample17sampleArrayStruct'...
GPGPU-Sim PTX: pre-decoding instructions for '_Z14reorder_kerneliPjP20ReconstructionSample17sampleArrayStruct'...
GPGPU-Sim PTX: reconvergence points for _Z14reorder_kerneliPjP20ReconstructionSample17sampleArrayStruct...
GPGPU-Sim PTX:  1 (potential) branch divergence @  PC=0x328 (_2.ptx:210) @%p1 bra $Lt_2_1026;
GPGPU-Sim PTX:    immediate post dominator      @  PC=0x3e8 (_2.ptx:240) exit;
GPGPU-Sim PTX: ... end of reconvergence points for _Z14reorder_kerneliPjP20ReconstructionSample17sampleArrayStruct
GPGPU-Sim PTX: ... done pre-decoding instructions for '_Z14reorder_kerneliPjP20ReconstructionSample17sampleArrayStruct'.
GPGPU-Sim PTX: allocating constant region for "cutoff2_c" from 0x18c to 0x190 (global memory space) 3
GPGPU-Sim PTX: allocating constant region for "cutoff_c" from 0x190 to 0x194 (global memory space) 4
GPGPU-Sim PTX: allocating constant region for "_1overCutoff2_c" from 0x194 to 0x198 (global memory space) 5
GPGPU-Sim PTX: allocating shared region for "__cuda___cuda_local_var_43991_33_non_const_sdc_s140" from 0x0 to 0x100 (shared memory space)
GPGPU-Sim PTX: allocating shared region for "__cuda___cuda_local_var_43989_33_non_const_ky_s396" from 0x100 to 0x200 (shared memory space)
GPGPU-Sim PTX: allocating shared region for "__cuda___cuda_local_var_43987_33_non_const_imag_s652" from 0x200 to 0x300 (shared memory space)
GPGPU-Sim PTX: allocating shared region for "__cuda___cuda_local_var_43990_33_non_const_kz_s908" from 0x300 to 0x400 (shared memory space)
GPGPU-Sim PTX: allocating shared region for "__cuda___cuda_local_var_43988_33_non_const_kx_s1164" from 0x400 to 0x500 (shared memory space)
GPGPU-Sim PTX: allocating shared region for "__cuda___cuda_local_var_43986_33_non_const_real_s1420" from 0x500 to 0x600 (shared memory space)
GPGPU-Sim PTX: instruction assembly for function '_Z12gridding_GPU17sampleArrayStructPjP6float2Pff'...   done.
GPGPU-Sim PTX: finding reconvergence points for '_Z12gridding_GPU17sampleArrayStructPjP6float2Pff'...
GPGPU-Sim PTX: Finding dominators for '_Z12gridding_GPU17sampleArrayStructPjP6float2Pff'...
GPGPU-Sim PTX: Finding immediate dominators for '_Z12gridding_GPU17sampleArrayStructPjP6float2Pff'...
GPGPU-Sim PTX: Finding postdominators for '_Z12gridding_GPU17sampleArrayStructPjP6float2Pff'...
GPGPU-Sim PTX: Finding immediate postdominators for '_Z12gridding_GPU17sampleArrayStructPjP6float2Pff'...
GPGPU-Sim PTX: pre-decoding instructions for '_Z12gridding_GPU17sampleArrayStructPjP6float2Pff'...
GPGPU-Sim PTX: reconvergence points for _Z12gridding_GPU17sampleArrayStructPjP6float2Pff...
GPGPU-Sim PTX:  1 (potential) branch divergence @  PC=0x440 (_2.ptx:277) @%p1 bra $Lt_3_12802;
GPGPU-Sim PTX:    immediate post dominator      @  PC=0x460 (_2.ptx:284) mov.u32 %r8, %ntid.y;
GPGPU-Sim PTX:  2 (potential) branch divergence @  PC=0x450 (_2.ptx:280) bra.uni $Lt_3_12546;
GPGPU-Sim PTX:    immediate post dominator      @  PC=0x460 (_2.ptx:284) mov.u32 %r8, %ntid.y;
GPGPU-Sim PTX:  3 (potential) branch divergence @  PC=0x4b8 (_2.ptx:295) @%p2 bra $Lt_3_13314;
GPGPU-Sim PTX:    immediate post dominator      @  PC=0x4d8 (_2.ptx:302) div.u32 %r17, %r11, %r10;
GPGPU-Sim PTX:  4 (potential) branch divergence @  PC=0x4c8 (_2.ptx:298) bra.uni $Lt_3_13058;
GPGPU-Sim PTX:    immediate post dominator      @  PC=0x4d8 (_2.ptx:302) div.u32 %r17, %r11, %r10;
GPGPU-Sim PTX:  5 (potential) branch divergence @  PC=0x528 (_2.ptx:312) @%p3 bra $Lt_3_13826;
GPGPU-Sim PTX:    immediate post dominator      @  PC=0x548 (_2.ptx:320) cvt.rpi.f32.f32 %f8, %f2;
GPGPU-Sim PTX:  6 (potential) branch divergence @  PC=0x538 (_2.ptx:315) bra.uni $Lt_3_13570;
GPGPU-Sim PTX:    immediate post dominator      @  PC=0x548 (_2.ptx:320) cvt.rpi.f32.f32 %f8, %f2;
GPGPU-Sim PTX:  7 (potential) branch divergence @  PC=0x5c0 (_2.ptx:335) @%p4 bra $Lt_3_20738;
GPGPU-Sim PTX:    immediate post dominator      @  PC=0x12a0 (_2.ptx:811) mul.lo.s32 %r80, %r6, %r33;
GPGPU-Sim PTX:  8 (potential) branch divergence @  PC=0x718 (_2.ptx:381) @!%p5 bra $Lt_3_14850;
GPGPU-Sim PTX:    immediate post dominator      @  PC=0x1218 (_2.ptx:791) add.s32 %r29, %r29, 1;
GPGPU-Sim PTX:  9 (potential) branch divergence @  PC=0x800 (_2.ptx:414) @%p6 bra $Lt_3_15618;
GPGPU-Sim PTX:    immediate post dominator      @  PC=0x11f0 (_2.ptx:785) add.s32 %r54, %r54, 1;
GPGPU-Sim PTX: 10 (potential) branch divergence @  PC=0x850 (_2.ptx:427) @%p7 bra $Lt_3_16386;
GPGPU-Sim PTX:    immediate post dominator      @  PC=0x920 (_2.ptx:463) bar.sync 0;
GPGPU-Sim PTX: 11 (potential) branch divergence @  PC=0x938 (_2.ptx:466) @%p8 bra $Lt_3_16898;
GPGPU-Sim PTX:    immediate post dominator      @  PC=0x11d8 (_2.ptx:781) add.s32 %r68, %r68, 1;
GPGPU-Sim PTX: 12 (potential) branch divergence @  PC=0x9a8 (_2.ptx:486) @%p9 bra $L_3_12290;
GPGPU-Sim PTX:    immediate post dominator      @  PC=0x11b8 (_2.ptx:776) add.s32 %r78, %r78, 1;
GPGPU-Sim PTX: 13 (potential) branch divergence @  PC=0x9c8 (_2.ptx:490) @!%p10 bra $Lt_3_22018;
GPGPU-Sim PTX:    immediate post dominator      @  PC=0x11b8 (_2.ptx:776) add.s32 %r78, %r78, 1;
GPGPU-Sim PTX: 14 (potential) branch divergence @  PC=0x9e8 (_2.ptx:495) @!%p11 bra $Lt_3_22018;
GPGPU-Sim PTX:    immediate post dominator      @  PC=0x11b8 (_2.ptx:776) add.s32 %r78, %r78, 1;
GPGPU-Sim PTX: 15 (potential) branch divergence @  PC=0xa78 (_2.ptx:515) @!%p12 bra $Lt_3_17666;
GPGPU-Sim PTX:    immediate post dominator      @  PC=0xc30 (_2.ptx:577) cvt.rn.f32.s32 %f94, %r43;
GPGPU-Sim PTX: 16 (potential) branch divergence @  PC=0xc50 (_2.ptx:581) @!%p13 bra $Lt_3_18178;
GPGPU-Sim PTX:    immediate post dominator      @  PC=0xe08 (_2.ptx:643) cvt.rn.f32.s32 %f139, %r44;
GPGPU-Sim PTX: 17 (potential) branch divergence @  PC=0xe28 (_2.ptx:647) @!%p14 bra $Lt_3_18690;
GPGPU-Sim PTX:    immediate post dominator      @  PC=0xfe0 (_2.ptx:709) cvt.rn.f32.s32 %f184, %r45;
GPGPU-Sim PTX: 18 (potential) branch divergence @  PC=0x1000 (_2.ptx:713) @!%p15 bra $Lt_3_22018;
GPGPU-Sim PTX:    immediate post dominator      @  PC=0x11b8 (_2.ptx:776) add.s32 %r78, %r78, 1;
GPGPU-Sim PTX: 19 (potential) branch divergence @  PC=0x11d0 (_2.ptx:779) @%p16 bra $Lt_3_17410;
GPGPU-Sim PTX:    immediate post dominator      @  PC=0x11d8 (_2.ptx:781) add.s32 %r68, %r68, 1;
GPGPU-Sim PTX: 20 (potential) branch divergence @  PC=0x11e8 (_2.ptx:783) @%p17 bra $Lt_3_16130;
GPGPU-Sim PTX:    immediate post dominator      @  PC=0x11f0 (_2.ptx:785) add.s32 %r54, %r54, 1;
GPGPU-Sim PTX: 21 (potential) branch divergence @  PC=0x1210 (_2.ptx:789) @%p18 bra $Lt_3_15362;
GPGPU-Sim PTX:    immediate post dominator      @  PC=0x1218 (_2.ptx:791) add.s32 %r29, %r29, 1;
GPGPU-Sim PTX: 22 (potential) branch divergence @  PC=0x1228 (_2.ptx:793) @%p19 bra $Lt_3_14594;
GPGPU-Sim PTX:    immediate post dominator      @  PC=0x1230 (_2.ptx:794) bra.uni $Lt_3_14082;
GPGPU-Sim PTX: 23 (potential) branch divergence @  PC=0x1230 (_2.ptx:794) bra.uni $Lt_3_14082;
GPGPU-Sim PTX:    immediate post dominator      @  PC=0x12a0 (_2.ptx:811) mul.lo.s32 %r80, %r6, %r33;
GPGPU-Sim PTX: ... end of reconvergence points for _Z12gridding_GPU17sampleArrayStructPjP6float2Pff
GPGPU-Sim PTX: ... done pre-decoding instructions for '_Z12gridding_GPU17sampleArrayStructPjP6float2Pff'.
GPGPU-Sim PTX: finished parsing EMBEDDED .ptx file _2.ptx
Adding _cuobjdump_2.ptx with cubin handle 2
GPGPU-Sim PTX: extracting embedded .ptx to temporary file "_ptx_fuLynM"
Running: cat _ptx_fuLynM | sed 's/.version 1.5/.version 1.4/' | sed 's/, texmode_independent//' | sed 's/\(\.extern \.const\[1\] .b8 \w\+\)\[\]/\1\[1\]/' | sed 's/const\[.\]/const\[0\]/g' > _ptx2_KkTgrP
GPGPU-Sim PTX: generating ptxinfo using "$CUDA_INSTALL_PATH/bin/ptxas --gpu-name=sm_20 -v _ptx2_KkTgrP --output-file  /dev/null 2> _ptx_fuLynMinfo"
GPGPU-Sim PTX: Kernel '_Z12gridding_GPU17sampleArrayStructPjP6float2Pff' : regs=51, lmem=0, smem=1536, cmem=172
GPGPU-Sim PTX: Kernel '_Z14reorder_kerneliPjP20ReconstructionSample17sampleArrayStruct' : regs=14, lmem=0, smem=0, cmem=100
GPGPU-Sim PTX: Kernel '_Z14binning_kerneljP20ReconstructionSamplePjS1_S1_jj' : regs=8, lmem=0, smem=0, cmem=108
GPGPU-Sim PTX: removing ptxinfo using "rm -f _ptx_fuLynM _ptx2_KkTgrP _ptx_fuLynMinfo"
GPGPU-Sim PTX: loading globals with explicit initializers... 
GPGPU-Sim PTX: finished loading globals (0 bytes total).
GPGPU-Sim PTX: loading constants with explicit initializers...  done.
GPGPU-Sim PTX: __cudaRegisterFunction _Z14reorder_kerneliPjP20ReconstructionSample17sampleArrayStruct : hostFun 0x0x405b10, fat_cubin_handle = 2
GPGPU-Sim PTX: __cudaRegisterFunction _Z14binning_kerneljP20ReconstructionSamplePjS1_S1_jj : hostFun 0x0x405ae0, fat_cubin_handle = 2
GPGPU-Sim PTX: __cudaRegisterVar: hostVar = 0x620258; deviceAddress = cutoff2_c; deviceName = cutoff2_c
GPGPU-Sim PTX: __cudaRegisterVar: Registering const memory space of 4 bytes
GPGPU-Sim PTX registering constant cutoff2_c (4 bytes) to name mapping
GPGPU-Sim PTX: __cudaRegisterVar: hostVar = 0x62025c; deviceAddress = cutoff_c; deviceName = cutoff_c
GPGPU-Sim PTX: __cudaRegisterVar: Registering const memory space of 4 bytes
GPGPU-Sim PTX registering constant cutoff_c (4 bytes) to name mapping
GPGPU-Sim PTX: __cudaRegisterVar: hostVar = 0x620260; deviceAddress = gridSize_c; deviceName = gridSize_c
GPGPU-Sim PTX: __cudaRegisterVar: Registering const memory space of 12 bytes
GPGPU-Sim PTX registering constant gridSize_c (12 bytes) to name mapping
GPGPU-Sim PTX: __cudaRegisterVar: hostVar = 0x62026c; deviceAddress = size_xy_c; deviceName = size_xy_c
GPGPU-Sim PTX: __cudaRegisterVar: Registering const memory space of 4 bytes
GPGPU-Sim PTX registering constant size_xy_c (4 bytes) to name mapping
GPGPU-Sim PTX: __cudaRegisterVar: hostVar = 0x620270; deviceAddress = _1overCutoff2_c; deviceName = _1overCutoff2_c
GPGPU-Sim PTX: __cudaRegisterVar: Registering const memory space of 4 bytes
GPGPU-Sim PTX registering constant _1overCutoff2_c (4 bytes) to name mapping
GPGPU-Sim PTX: __cudaRegisterFatBinary, fat_cubin_handle = 3, filename=scanLargeArray.cu
GPGPU-Sim PTX: __cudaRegisterFunction _Z10uniformAddjPjS_ : hostFun 0x0x407010, fat_cubin_handle = 3
GPGPU-Sim PTX: allocating shared region for "__cuda___cuda_local_var_33673_42_non_const_s_data24" from 0x0 to 0x1110 (shared memory space)
GPGPU-Sim PTX: instruction assembly for function '_Z14scan_L1_kerneljPjS_'...   done.
GPGPU-Sim PTX: finding reconvergence points for '_Z14scan_L1_kerneljPjS_'...
GPGPU-Sim PTX: Finding dominators for '_Z14scan_L1_kerneljPjS_'...
GPGPU-Sim PTX: Finding immediate dominators for '_Z14scan_L1_kerneljPjS_'...
GPGPU-Sim PTX: Finding postdominators for '_Z14scan_L1_kerneljPjS_'...
GPGPU-Sim PTX: Finding immediate postdominators for '_Z14scan_L1_kerneljPjS_'...
GPGPU-Sim PTX: pre-decoding instructions for '_Z14scan_L1_kerneljPjS_'...
GPGPU-Sim PTX: reconvergence points for _Z14scan_L1_kerneljPjS_...
GPGPU-Sim PTX:  1 (potential) branch divergence @  PC=0x1418 (_3.ptx:70) @!%p1 bra $Lt_0_7938;
GPGPU-Sim PTX:    immediate post dominator      @  PC=0x1458 (_3.ptx:81) mov.u64 %rd5, __cuda___cuda_local_var_33673_42_non_const_s_data24;
GPGPU-Sim PTX:  2 (potential) branch divergence @  PC=0x1448 (_3.ptx:77) bra.uni $Lt_0_7682;
GPGPU-Sim PTX:    immediate post dominator      @  PC=0x1458 (_3.ptx:81) mov.u64 %rd5, __cuda___cuda_local_var_33673_42_non_const_s_data24;
GPGPU-Sim PTX:  3 (potential) branch divergence @  PC=0x14b0 (_3.ptx:92) @!%p2 bra $Lt_0_8450;
GPGPU-Sim PTX:    immediate post dominator      @  PC=0x14f0 (_3.ptx:103) add.u32 %r15, %r5, %r1;
GPGPU-Sim PTX:  4 (potential) branch divergence @  PC=0x14e0 (_3.ptx:99) bra.uni $Lt_0_8194;
GPGPU-Sim PTX:    immediate post dominator      @  PC=0x14f0 (_3.ptx:103) add.u32 %r15, %r5, %r1;
GPGPU-Sim PTX:  5 (potential) branch divergence @  PC=0x1550 (_3.ptx:116) @%p3 bra $Lt_0_13314;
GPGPU-Sim PTX:    immediate post dominator      @  PC=0x1670 (_3.ptx:160) mov.u32 %r41, 0;
GPGPU-Sim PTX:  6 (potential) branch divergence @  PC=0x1570 (_3.ptx:122) @%p4 bra $Lt_0_9474;
GPGPU-Sim PTX:    immediate post dominator      @  PC=0x1638 (_3.ptx:150) mul.lo.u32 %r22, %r22, 2;
GPGPU-Sim PTX:  7 (potential) branch divergence @  PC=0x1658 (_3.ptx:155) @%p5 bra $Lt_0_9218;
GPGPU-Sim PTX:    immediate post dominator      @  PC=0x1660 (_3.ptx:156) bra.uni $Lt_0_8706;
GPGPU-Sim PTX:  8 (potential) branch divergence @  PC=0x1660 (_3.ptx:156) bra.uni $Lt_0_8706;
GPGPU-Sim PTX:    immediate post dominator      @  PC=0x1670 (_3.ptx:160) mov.u32 %r41, 0;
GPGPU-Sim PTX:  9 (potential) branch divergence @  PC=0x1680 (_3.ptx:162) @%p6 bra $Lt_0_10242;
GPGPU-Sim PTX:    immediate post dominator      @  PC=0x1710 (_3.ptx:183) mov.u32 %r50, 1;
GPGPU-Sim PTX: 10 (potential) branch divergence @  PC=0x1720 (_3.ptx:185) @%p7 bra $Lt_0_10754;
GPGPU-Sim PTX:    immediate post dominator      @  PC=0x1838 (_3.ptx:231) bar.sync 0;
GPGPU-Sim PTX: 11 (potential) branch divergence @  PC=0x1748 (_3.ptx:194) @%p8 bra $Lt_0_11522;
GPGPU-Sim PTX:    immediate post dominator      @  PC=0x1820 (_3.ptx:226) mul.lo.u32 %r51, %r51, 2;
GPGPU-Sim PTX: 12 (potential) branch divergence @  PC=0x1830 (_3.ptx:228) @%p9 bra $Lt_0_11266;
GPGPU-Sim PTX:    immediate post dominator      @  PC=0x1838 (_3.ptx:231) bar.sync 0;
GPGPU-Sim PTX: 13 (potential) branch divergence @  PC=0x1840 (_3.ptx:232) @!%p1 bra $Lt_0_12290;
GPGPU-Sim PTX:    immediate post dominator      @  PC=0x1878 (_3.ptx:241) @!%p2 bra $Lt_0_12802;
GPGPU-Sim PTX: 14 (potential) branch divergence @  PC=0x1878 (_3.ptx:241) @!%p2 bra $Lt_0_12802;
GPGPU-Sim PTX:    immediate post dominator      @  PC=0x18b0 (_3.ptx:251) exit;
GPGPU-Sim PTX: ... end of reconvergence points for _Z14scan_L1_kerneljPjS_
GPGPU-Sim PTX: ... done pre-decoding instructions for '_Z14scan_L1_kerneljPjS_'.
GPGPU-Sim PTX: allocating shared region for "s_data" from 0x0 to 0x0 (shared memory space)
GPGPU-Sim PTX: instruction assembly for function '_Z18scan_inter1_kernelPjj'...   done.
GPGPU-Sim PTX: finding reconvergence points for '_Z18scan_inter1_kernelPjj'...
GPGPU-Sim PTX: Finding dominators for '_Z18scan_inter1_kernelPjj'...
GPGPU-Sim PTX: Finding immediate dominators for '_Z18scan_inter1_kernelPjj'...
GPGPU-Sim PTX: Finding postdominators for '_Z18scan_inter1_kernelPjj'...
GPGPU-Sim PTX: Finding immediate postdominators for '_Z18scan_inter1_kernelPjj'...
GPGPU-Sim PTX: pre-decoding instructions for '_Z18scan_inter1_kernelPjj'...
GPGPU-Sim PTX: reconvergence points for _Z18scan_inter1_kernelPjj...
GPGPU-Sim PTX:  1 (potential) branch divergence @  PC=0x1a00 (_3.ptx:309) @%p1 bra $Lt_1_2050;
GPGPU-Sim PTX:    immediate post dominator      @  PC=0x1b10 (_3.ptx:351) bar.sync 0;
GPGPU-Sim PTX:  2 (potential) branch divergence @  PC=0x1a20 (_3.ptx:315) @%p2 bra $Lt_1_2818;
GPGPU-Sim PTX:    immediate post dominator      @  PC=0x1ae8 (_3.ptx:343) mul.lo.u32 %r25, %r25, 2;
GPGPU-Sim PTX:  3 (potential) branch divergence @  PC=0x1b08 (_3.ptx:348) @%p3 bra $Lt_1_2562;
GPGPU-Sim PTX:    immediate post dominator      @  PC=0x1b10 (_3.ptx:351) bar.sync 0;
GPGPU-Sim PTX: ... end of reconvergence points for _Z18scan_inter1_kernelPjj
GPGPU-Sim PTX: ... done pre-decoding instructions for '_Z18scan_inter1_kernelPjj'.
GPGPU-Sim PTX: instruction assembly for function '_Z18scan_inter2_kernelPjj'...   done.
GPGPU-Sim PTX: finding reconvergence points for '_Z18scan_inter2_kernelPjj'...
GPGPU-Sim PTX: Finding dominators for '_Z18scan_inter2_kernelPjj'...
GPGPU-Sim PTX: Finding immediate dominators for '_Z18scan_inter2_kernelPjj'...
GPGPU-Sim PTX: Finding postdominators for '_Z18scan_inter2_kernelPjj'...
GPGPU-Sim PTX: Finding immediate postdominators for '_Z18scan_inter2_kernelPjj'...
GPGPU-Sim PTX: pre-decoding instructions for '_Z18scan_inter2_kernelPjj'...
GPGPU-Sim PTX: reconvergence points for _Z18scan_inter2_kernelPjj...
GPGPU-Sim PTX:  1 (potential) branch divergence @  PC=0x1c88 (_3.ptx:416) @%p1 bra $Lt_2_2050;
GPGPU-Sim PTX:    immediate post dominator      @  PC=0x1da0 (_3.ptx:462) bar.sync 0;
GPGPU-Sim PTX:  2 (potential) branch divergence @  PC=0x1cb0 (_3.ptx:425) @%p2 bra $Lt_2_2818;
GPGPU-Sim PTX:    immediate post dominator      @  PC=0x1d88 (_3.ptx:457) mul.lo.u32 %r25, %r25, 2;
GPGPU-Sim PTX:  3 (potential) branch divergence @  PC=0x1d98 (_3.ptx:459) @%p3 bra $Lt_2_2562;
GPGPU-Sim PTX:    immediate post dominator      @  PC=0x1da0 (_3.ptx:462) bar.sync 0;
GPGPU-Sim PTX: ... end of reconvergence points for _Z18scan_inter2_kernelPjj
GPGPU-Sim PTX: ... done pre-decoding instructions for '_Z18scan_inter2_kernelPjj'.
GPGPU-Sim PTX: allocating shared region for "__cuda_local_var_33835_42_non_const_uni" from 0x0 to 0x4 (shared memory space)
GPGPU-Sim PTX: instruction assembly for function '_Z10uniformAddjPjS_'...   done.
GPGPU-Sim PTX: finding reconvergence points for '_Z10uniformAddjPjS_'...
GPGPU-Sim PTX: Finding dominators for '_Z10uniformAddjPjS_'...
GPGPU-Sim PTX: Finding immediate dominators for '_Z10uniformAddjPjS_'...
GPGPU-Sim PTX: Finding postdominators for '_Z10uniformAddjPjS_'...
GPGPU-Sim PTX: Finding immediate postdominators for '_Z10uniformAddjPjS_'...
GPGPU-Sim PTX: pre-decoding instructions for '_Z10uniformAddjPjS_'...
GPGPU-Sim PTX: reconvergence points for _Z10uniformAddjPjS_...
GPGPU-Sim PTX:  1 (potential) branch divergence @  PC=0x1df0 (_3.ptx:489) @%p1 bra $Lt_3_2562;
GPGPU-Sim PTX:    immediate post dominator      @  PC=0x1e28 (_3.ptx:499) bar.sync 0;
GPGPU-Sim PTX:  2 (potential) branch divergence @  PC=0x1e60 (_3.ptx:506) @%p2 bra $Lt_3_3074;
GPGPU-Sim PTX:    immediate post dominator      @  PC=0x1ea8 (_3.ptx:517) add.u32 %r13, %r8, %r5;
GPGPU-Sim PTX:  3 (potential) branch divergence @  PC=0x1eb8 (_3.ptx:519) @%p3 bra $Lt_3_3586;
GPGPU-Sim PTX:    immediate post dominator      @  PC=0x1f00 (_3.ptx:531) exit;
GPGPU-Sim PTX: ... end of reconvergence points for _Z10uniformAddjPjS_
GPGPU-Sim PTX: ... done pre-decoding instructions for '_Z10uniformAddjPjS_'.
GPGPU-Sim PTX: finished parsing EMBEDDED .ptx file _3.ptx
Adding _cuobjdump_3.ptx with cubin handle 3
GPGPU-Sim PTX: extracting embedded .ptx to temporary file "_ptx_p7BOGS"
Running: cat _ptx_p7BOGS | sed 's/.version 1.5/.version 1.4/' | sed 's/, texmode_independent//' | sed 's/\(\.extern \.const\[1\] .b8 \w\+\)\[\]/\1\[1\]/' | sed 's/const\[.\]/const\[0\]/g' > _ptx2_OpInWV
GPGPU-Sim PTX: generating ptxinfo using "$CUDA_INSTALL_PATH/bin/ptxas --gpu-name=sm_20 -v _ptx2_OpInWV --output-file  /dev/null 2> _ptx_p7BOGSinfo"
GPGPU-Sim PTX: Kernel '_Z10uniformAddjPjS_' : regs=6, lmem=0, smem=16, cmem=56
GPGPU-Sim PTX: Kernel '_Z18scan_inter2_kernelPjj' : regs=15, lmem=0, smem=0, cmem=44
GPGPU-Sim PTX: Kernel '_Z18scan_inter1_kernelPjj' : regs=16, lmem=0, smem=0, cmem=44
GPGPU-Sim PTX: Kernel '_Z14scan_L1_kerneljPjS_' : regs=15, lmem=0, smem=4368, cmem=56
GPGPU-Sim PTX: removing ptxinfo using "rm -f _ptx_p7BOGS _ptx2_OpInWV _ptx_p7BOGSinfo"
GPGPU-Sim PTX: loading globals with explicit initializers... 
GPGPU-Sim PTX: finished loading globals (0 bytes total).
GPGPU-Sim PTX: loading constants with explicit initializers...  done.
GPGPU-Sim PTX: __cudaRegisterFunction _Z18scan_inter2_kernelPjj : hostFun 0x0x406f30, fat_cubin_handle = 3
GPGPU-Sim PTX: __cudaRegisterFunction _Z18scan_inter1_kernelPjj : hostFun 0x0x406ed0, fat_cubin_handle = 3
GPGPU-Sim PTX: __cudaRegisterFunction _Z14scan_L1_kerneljPjS_ : hostFun 0x0x406f90, fat_cubin_handle = 3
GPGPU-Sim PTX: __cudaRegisterFatBinary, fat_cubin_handle = 4, filename=sort.cu
GPGPU-Sim PTX: __cudaRegisterFunction _Z14splitRearrangeiiPjS_S_S_S_ : hostFun 0x0x407300, fat_cubin_handle = 4
GPGPU-Sim PTX: allocating stack frame region for .param "__cudaparmf1__Z4scanPj" from 0x0 to 0x8
GPGPU-Sim PTX: instruction assembly for function '_Z4scanPj'...   done.
GPGPU-Sim PTX: finding reconvergence points for '_Z4scanPj'...
GPGPU-Sim PTX: Finding dominators for '_Z4scanPj'...
GPGPU-Sim PTX: Finding immediate dominators for '_Z4scanPj'...
GPGPU-Sim PTX: Finding postdominators for '_Z4scanPj'...
GPGPU-Sim PTX: Finding immediate postdominators for '_Z4scanPj'...
GPGPU-Sim PTX: pre-decoding instructions for '_Z4scanPj'...
GPGPU-Sim PTX: reconvergence points for _Z4scanPj...
GPGPU-Sim PTX:  1 (potential) branch divergence @  PC=0x2088 (_4.ptx:111) @%p1 bra $Lt_0_8194;
GPGPU-Sim PTX:    immediate post dominator      @  PC=0x21a8 (_4.ptx:155) mov.u32 %r51, 0;
GPGPU-Sim PTX:  2 (potential) branch divergence @  PC=0x20a8 (_4.ptx:117) @%p2 bra $Lt_0_5378;
GPGPU-Sim PTX:    immediate post dominator      @  PC=0x2170 (_4.ptx:145) mul.lo.u32 %r32, %r32, 2;
GPGPU-Sim PTX:  3 (potential) branch divergence @  PC=0x2190 (_4.ptx:150) @%p3 bra $Lt_0_5122;
GPGPU-Sim PTX:    immediate post dominator      @  PC=0x2198 (_4.ptx:151) bra.uni $Lt_0_4610;
GPGPU-Sim PTX:  4 (potential) branch divergence @  PC=0x2198 (_4.ptx:151) bra.uni $Lt_0_4610;
GPGPU-Sim PTX:    immediate post dominator      @  PC=0x21a8 (_4.ptx:155) mov.u32 %r51, 0;
GPGPU-Sim PTX:  5 (potential) branch divergence @  PC=0x21b8 (_4.ptx:157) @%p4 bra $Lt_0_6146;
GPGPU-Sim PTX:    immediate post dominator      @  PC=0x2260 (_4.ptx:181) mov.u32 %r64, 1;
GPGPU-Sim PTX:  6 (potential) branch divergence @  PC=0x2270 (_4.ptx:183) @%p5 bra $Lt_0_6658;
GPGPU-Sim PTX:    immediate post dominator      @  PC=0x2388 (_4.ptx:229) bar.sync 0;
GPGPU-Sim PTX:  7 (potential) branch divergence @  PC=0x2298 (_4.ptx:192) @%p6 bra $Lt_0_7426;
GPGPU-Sim PTX:    immediate post dominator      @  PC=0x2370 (_4.ptx:224) mul.lo.u32 %r65, %r65, 2;
GPGPU-Sim PTX:  8 (potential) branch divergence @  PC=0x2380 (_4.ptx:226) @%p7 bra $Lt_0_7170;
GPGPU-Sim PTX:    immediate post dominator      @  PC=0x2388 (_4.ptx:229) bar.sync 0;
GPGPU-Sim PTX: ... end of reconvergence points for _Z4scanPj
GPGPU-Sim PTX: ... done pre-decoding instructions for '_Z4scanPj'.
GPGPU-Sim PTX: allocating shared region for "__cuda___cuda_local_var_40881_42_non_const_histo_s32" from 0x0 to 0x40 (shared memory space)
GPGPU-Sim PTX: allocating shared region for "__cuda___cuda_local_var_40880_42_non_const_flags96" from 0x80 to 0x11c4 (shared memory space)
GPGPU-Sim PTX: instruction assembly for function '_Z9splitSortiiPjS_S_'...   done.
GPGPU-Sim PTX: finding reconvergence points for '_Z9splitSortiiPjS_S_'...
GPGPU-Sim PTX: Finding dominators for '_Z9splitSortiiPjS_S_'...
GPGPU-Sim PTX: Finding immediate dominators for '_Z9splitSortiiPjS_S_'...
GPGPU-Sim PTX: Finding postdominators for '_Z9splitSortiiPjS_S_'...
GPGPU-Sim PTX: Finding immediate postdominators for '_Z9splitSortiiPjS_S_'...
GPGPU-Sim PTX: pre-decoding instructions for '_Z9splitSortiiPjS_S_'...
GPGPU-Sim PTX: reconvergence points for _Z9splitSortiiPjS_S_...
GPGPU-Sim PTX:  1 (potential) branch divergence @  PC=0x2430 (_4.ptx:275) @!%p1 bra $Lt_1_12034;
GPGPU-Sim PTX:    immediate post dominator      @  PC=0x24c0 (_4.ptx:297) mov.u32 %r19, 15;
GPGPU-Sim PTX:  2 (potential) branch divergence @  PC=0x2498 (_4.ptx:290) bra.uni $Lt_1_11778;
GPGPU-Sim PTX:    immediate post dominator      @  PC=0x24c0 (_4.ptx:297) mov.u32 %r19, 15;
GPGPU-Sim PTX:  3 (potential) branch divergence @  PC=0x24d0 (_4.ptx:299) @!%p2 bra $Lt_1_12290;
GPGPU-Sim PTX:    immediate post dominator      @  PC=0x2508 (_4.ptx:308) mov.u64 %rd7, __cuda___cuda_local_var_40881_42_non_const_histo_s32;
GPGPU-Sim PTX:  4 (potential) branch divergence @  PC=0x2658 (_4.ptx:354) @%p3 bra $Lt_1_12802;
GPGPU-Sim PTX:    immediate post dominator      @  PC=0x2dd0 (_4.ptx:643) @!%p1 bra $Lt_1_17410;
GPGPU-Sim PTX:  5 (potential) branch divergence @  PC=0x29b8 (_4.ptx:472) @!%p4 bra $Lt_1_18690;
GPGPU-Sim PTX:    immediate post dominator      @  PC=0x2ad8 (_4.ptx:516) @!%p5 bra $Lt_1_15106;
GPGPU-Sim PTX:  6 (potential) branch divergence @  PC=0x29d8 (_4.ptx:478) @%p7 bra $Lt_1_14338;
GPGPU-Sim PTX:    immediate post dominator      @  PC=0x2aa0 (_4.ptx:506) mul.lo.u32 %r117, %r117, 2;
GPGPU-Sim PTX:  7 (potential) branch divergence @  PC=0x2ac0 (_4.ptx:511) @%p8 bra $Lt_1_14082;
GPGPU-Sim PTX:    immediate post dominator      @  PC=0x2ac8 (_4.ptx:512) bra.uni $Lt_1_13570;
GPGPU-Sim PTX:  8 (potential) branch divergence @  PC=0x2ac8 (_4.ptx:512) bra.uni $Lt_1_13570;
GPGPU-Sim PTX:    immediate post dominator      @  PC=0x2ad8 (_4.ptx:516) @!%p5 bra $Lt_1_15106;
GPGPU-Sim PTX:  9 (potential) branch divergence @  PC=0x2ad8 (_4.ptx:516) @!%p5 bra $Lt_1_15106;
GPGPU-Sim PTX:    immediate post dominator      @  PC=0x2b40 (_4.ptx:532) @!%p6 bra $Lt_1_15618;
GPGPU-Sim PTX: 10 (potential) branch divergence @  PC=0x2b40 (_4.ptx:532) @!%p6 bra $Lt_1_15618;
GPGPU-Sim PTX:    immediate post dominator      @  PC=0x2c58 (_4.ptx:578) bar.sync 0;
GPGPU-Sim PTX: 11 (potential) branch divergence @  PC=0x2b68 (_4.ptx:541) @%p9 bra $Lt_1_16386;
GPGPU-Sim PTX:    immediate post dominator      @  PC=0x2c40 (_4.ptx:573) mul.lo.u32 %r143, %r143, 2;
GPGPU-Sim PTX: 12 (potential) branch divergence @  PC=0x2c50 (_4.ptx:575) @%p10 bra $Lt_1_16130;
GPGPU-Sim PTX:    immediate post dominator      @  PC=0x2c58 (_4.ptx:578) bar.sync 0;
GPGPU-Sim PTX: 13 (potential) branch divergence @  PC=0x2dc8 (_4.ptx:641) @%p15 bra $Lt_1_13314;
GPGPU-Sim PTX:    immediate post dominator      @  PC=0x2dd0 (_4.ptx:643) @!%p1 bra $Lt_1_17410;
GPGPU-Sim PTX: 14 (potential) branch divergence @  PC=0x2dd0 (_4.ptx:643) @!%p1 bra $Lt_1_17410;
GPGPU-Sim PTX:    immediate post dominator      @  PC=0x2ef0 (_4.ptx:688) @!%p2 bra $Lt_1_17922;
GPGPU-Sim PTX: 15 (potential) branch divergence @  PC=0x2ef0 (_4.ptx:688) @!%p2 bra $Lt_1_17922;
GPGPU-Sim PTX:    immediate post dominator      @  PC=0x2f58 (_4.ptx:704) exit;
GPGPU-Sim PTX: ... end of reconvergence points for _Z9splitSortiiPjS_S_
GPGPU-Sim PTX: ... done pre-decoding instructions for '_Z9splitSortiiPjS_S_'.
GPGPU-Sim PTX: allocating shared region for "__cuda___cuda_local_var_40948_40_non_const_histo_s4568" from 0x0 to 0x40 (shared memory space)
GPGPU-Sim PTX: allocating shared region for "__cuda___cuda_local_var_40949_40_non_const_array_s4632" from 0x80 to 0x1080 (shared memory space)
GPGPU-Sim PTX: instruction assembly for function '_Z14splitRearrangeiiPjS_S_S_S_'...   done.
GPGPU-Sim PTX: finding reconvergence points for '_Z14splitRearrangeiiPjS_S_S_S_'...
GPGPU-Sim PTX: Finding dominators for '_Z14splitRearrangeiiPjS_S_S_S_'...
GPGPU-Sim PTX: Finding immediate dominators for '_Z14splitRearrangeiiPjS_S_S_S_'...
GPGPU-Sim PTX: Finding postdominators for '_Z14splitRearrangeiiPjS_S_S_S_'...
GPGPU-Sim PTX: Finding immediate postdominators for '_Z14splitRearrangeiiPjS_S_S_S_'...
GPGPU-Sim PTX: pre-decoding instructions for '_Z14splitRearrangeiiPjS_S_S_S_'...
GPGPU-Sim PTX: reconvergence points for _Z14splitRearrangeiiPjS_S_S_S_...
GPGPU-Sim PTX:  1 (potential) branch divergence @  PC=0x2f88 (_4.ptx:730) @%p1 bra $Lt_2_6914;
GPGPU-Sim PTX:    immediate post dominator      @  PC=0x2ff0 (_4.ptx:745) mov.u64 %rd2, __cuda___cuda_local_var_40948_40_non_const_histo_s4568;
GPGPU-Sim PTX:  2 (potential) branch divergence @  PC=0x3020 (_4.ptx:751) @!%p2 bra $Lt_2_7682;
GPGPU-Sim PTX:    immediate post dominator      @  PC=0x30b0 (_4.ptx:774) mov.u64 %rd15, __cuda___cuda_local_var_40949_40_non_const_array_s4632;
GPGPU-Sim PTX:  3 (potential) branch divergence @  PC=0x3088 (_4.ptx:766) bra.uni $Lt_2_7426;
GPGPU-Sim PTX:    immediate post dominator      @  PC=0x30b0 (_4.ptx:774) mov.u64 %rd15, __cuda___cuda_local_var_40949_40_non_const_array_s4632;
GPGPU-Sim PTX:  4 (potential) branch divergence @  PC=0x31c8 (_4.ptx:813) @%p3 bra $Lt_2_7938;
GPGPU-Sim PTX:    immediate post dominator      @  PC=0x3238 (_4.ptx:836) add.u32 %r48, %r37, 1;
GPGPU-Sim PTX:  5 (potential) branch divergence @  PC=0x3208 (_4.ptx:823) @%p4 bra $Lt_2_7938;
GPGPU-Sim PTX:    immediate post dominator      @  PC=0x3238 (_4.ptx:836) add.u32 %r48, %r37, 1;
GPGPU-Sim PTX:  6 (potential) branch divergence @  PC=0x3230 (_4.ptx:832) @%p5 bra $Lt_2_8450;
GPGPU-Sim PTX:    immediate post dominator      @  PC=0x3238 (_4.ptx:836) add.u32 %r48, %r37, 1;
GPGPU-Sim PTX:  7 (potential) branch divergence @  PC=0x32a0 (_4.ptx:849) @!%p2 bra $Lt_2_9474;
GPGPU-Sim PTX:    immediate post dominator      @  PC=0x3398 (_4.ptx:890) exit;
GPGPU-Sim PTX: ... end of reconvergence points for _Z14splitRearrangeiiPjS_S_S_S_
GPGPU-Sim PTX: ... done pre-decoding instructions for '_Z14splitRearrangeiiPjS_S_S_S_'.
GPGPU-Sim PTX: finished parsing EMBEDDED .ptx file _4.ptx
Adding _cuobjdump_4.ptx with cubin handle 4
GPGPU-Sim PTX: extracting embedded .ptx to temporary file "_ptx_ZknnjZ"
Running: cat _ptx_ZknnjZ | sed 's/.version 1.5/.version 1.4/' | sed 's/, texmode_independent//' | sed 's/\(\.extern \.const\[1\] .b8 \w\+\)\[\]/\1\[1\]/' | sed 's/const\[.\]/const\[0\]/g' > _ptx2_mgqoG2
GPGPU-Sim PTX: generating ptxinfo using "$CUDA_INSTALL_PATH/bin/ptxas --gpu-name=sm_20 -v _ptx2_mgqoG2 --output-file  /dev/null 2> _ptx_ZknnjZinfo"
GPGPU-Sim PTX: Kernel '_Z14splitRearrangeiiPjS_S_S_S_' : regs=23, lmem=0, smem=4160, cmem=80
GPGPU-Sim PTX: Kernel '_Z9splitSortiiPjS_S_' : regs=40, lmem=0, smem=4484, cmem=64
GPGPU-Sim PTX: removing ptxinfo using "rm -f _ptx_ZknnjZ _ptx2_mgqoG2 _ptx_ZknnjZinfo"
GPGPU-Sim PTX: loading globals with explicit initializers... 
GPGPU-Sim PTX: finished loading globals (0 bytes total).
GPGPU-Sim PTX: loading constants with explicit initializers...  done.
GPGPU-Sim PTX: __cudaRegisterFunction _Z9splitSortiiPjS_S_ : hostFun 0x0x4071f0, fat_cubin_handle = 4

Reading parameters
  Number of samples = 2655910
  Grid Size = 256x256x256
  Input Matrix Size = 60x60x60
  Recon Matrix Size = 60x60x60
  Kernel Width = 5.000000
  KMax = 150.00 150.00 150.00
  Oversampling = 5.000000
  GPU Binsize = 32
  Use LUT = Yes
Reading input data from files
Generating Look-Up Table
Running gold version
Running CUDA version
GPGPU-Sim PTX: cudaMemcpyToSymbol: symbol = 0x620258
GPGPU-Sim PTX: starting gpgpu_ptx_sim_memcpy_symbol with hostVar 0x0x620258
GPGPU-Sim PTX: gpgpu_ptx_sim_memcpy_symbol: Found PTX symbol w/ hostVar=0x620258
GPGPU-Sim PTX: gpgpu_ptx_sim_memcpy_symbol: copying const memory 4 bytes  to  symbol cutoff2_c+0 @0x18c ...
GPGPU-Sim PTX: cudaMemcpyToSymbol: symbol = 0x62025c
GPGPU-Sim PTX: starting gpgpu_ptx_sim_memcpy_symbol with hostVar 0x0x62025c
GPGPU-Sim PTX: gpgpu_ptx_sim_memcpy_symbol: Found PTX symbol w/ hostVar=0x62025c
GPGPU-Sim PTX: gpgpu_ptx_sim_memcpy_symbol: copying const memory 4 bytes  to  symbol cutoff_c+0 @0x190 ...
GPGPU-Sim PTX: cudaMemcpyToSymbol: symbol = 0x620260
GPGPU-Sim PTX: starting gpgpu_ptx_sim_memcpy_symbol with hostVar 0x0x620260
GPGPU-Sim PTX: gpgpu_ptx_sim_memcpy_symbol: Found PTX symbol w/ hostVar=0x620260
GPGPU-Sim PTX: gpgpu_ptx_sim_memcpy_symbol: copying const memory 12 bytes  to  symbol gridSize_c+0 @0x180 ...
GPGPU-Sim PTX: cudaMemcpyToSymbol: symbol = 0x62026c
GPGPU-Sim PTX: starting gpgpu_ptx_sim_memcpy_symbol with hostVar 0x0x62026c
GPGPU-Sim PTX: gpgpu_ptx_sim_memcpy_symbol: Found PTX symbol w/ hostVar=0x62026c
GPGPU-Sim PTX: gpgpu_ptx_sim_memcpy_symbol: copying const memory 4 bytes  to  symbol size_xy_c+0 @0x100 ...
GPGPU-Sim PTX: cudaMemcpyToSymbol: symbol = 0x620270
GPGPU-Sim PTX: starting gpgpu_ptx_sim_memcpy_symbol with hostVar 0x0x620270
GPGPU-Sim PTX: gpgpu_ptx_sim_memcpy_symbol: Found PTX symbol w/ hostVar=0x620270
GPGPU-Sim PTX: gpgpu_ptx_sim_memcpy_symbol: copying const memory 4 bytes  to  symbol _1overCutoff2_c+0 @0x194 ...
event update

GPGPU-Sim PTX: cudaLaunch for 0x0x405ae0 (mode=performance simulation) on stream 0
GPGPU-Sim PTX: pushing kernel '_Z14binning_kerneljP20ReconstructionSamplePjS1_S1_jj' to stream 0, gridDim= (5188,1,1) blockDim = (512,1,1) 
####  CUstream_st::push: Start pushing kernel: binning_kernel  ####
kernel '_Z14binning_kerneljP20ReconstructionSamplePjS1_S1_jj' transfer to GPU hardware scheduler
GPGPU-Sim uArch: Shader 1 bind to kernel 1 '_Z14binning_kerneljP20ReconstructionSamplePjS1_S1_jj'
GPGPU-Sim uArch: CTA/core = 3, limited by: threads
GPGPU-Sim uArch: core:  1, cta: 0 initialized @(1,0)
GPGPU-Sim uArch: Shader 2 bind to kernel 1 '_Z14binning_kerneljP20ReconstructionSamplePjS1_S1_jj'
GPGPU-Sim uArch: core:  2, cta: 0 initialized @(1,0)
GPGPU-Sim uArch: Shader 3 bind to kernel 1 '_Z14binning_kerneljP20ReconstructionSamplePjS1_S1_jj'
GPGPU-Sim uArch: core:  3, cta: 0 initialized @(1,0)
GPGPU-Sim uArch: Shader 4 bind to kernel 1 '_Z14binning_kerneljP20ReconstructionSamplePjS1_S1_jj'
GPGPU-Sim uArch: core:  4, cta: 0 initialized @(1,0)
GPGPU-Sim uArch: Shader 5 bind to kernel 1 '_Z14binning_kerneljP20ReconstructionSamplePjS1_S1_jj'
GPGPU-Sim uArch: core:  5, cta: 0 initialized @(1,0)
GPGPU-Sim uArch: Shader 6 bind to kernel 1 '_Z14binning_kerneljP20ReconstructionSamplePjS1_S1_jj'
GPGPU-Sim uArch: core:  6, cta: 0 initialized @(1,0)
GPGPU-Sim uArch: Shader 7 bind to kernel 1 '_Z14binning_kerneljP20ReconstructionSamplePjS1_S1_jj'
GPGPU-Sim uArch: core:  7, cta: 0 initialized @(1,0)
GPGPU-Sim uArch: Shader 8 bind to kernel 1 '_Z14binning_kerneljP20ReconstructionSamplePjS1_S1_jj'
GPGPU-Sim uArch: core:  8, cta: 0 initialized @(1,0)
GPGPU-Sim uArch: Shader 9 bind to kernel 1 '_Z14binning_kerneljP20ReconstructionSamplePjS1_S1_jj'
GPGPU-Sim uArch: core:  9, cta: 0 initialized @(1,0)
GPGPU-Sim uArch: Shader 10 bind to kernel 1 '_Z14binning_kerneljP20ReconstructionSamplePjS1_S1_jj'
GPGPU-Sim uArch: core: 10, cta: 0 initialized @(1,0)
GPGPU-Sim uArch: Shader 11 bind to kernel 1 '_Z14binning_kerneljP20ReconstructionSamplePjS1_S1_jj'
GPGPU-Sim uArch: core: 11, cta: 0 initialized @(1,0)
GPGPU-Sim uArch: Shader 12 bind to kernel 1 '_Z14binning_kerneljP20ReconstructionSamplePjS1_S1_jj'
GPGPU-Sim uArch: core: 12, cta: 0 initialized @(1,0)
GPGPU-Sim uArch: Shader 13 bind to kernel 1 '_Z14binning_kerneljP20ReconstructionSamplePjS1_S1_jj'
GPGPU-Sim uArch: core: 13, cta: 0 initialized @(1,0)
GPGPU-Sim uArch: Shader 14 bind to kernel 1 '_Z14binning_kerneljP20ReconstructionSamplePjS1_S1_jj'
GPGPU-Sim uArch: core: 14, cta: 0 initialized @(1,0)
GPGPU-Sim uArch: Shader 0 bind to kernel 1 '_Z14binning_kerneljP20ReconstructionSamplePjS1_S1_jj'
GPGPU-Sim uArch: core:  0, cta: 0 initialized @(1,0)
GPGPU-Sim uArch: core:  1, cta: 1 initialized @(2,0)
GPGPU-Sim uArch: core:  2, cta: 1 initialized @(2,0)
GPGPU-Sim uArch: core:  3, cta: 1 initialized @(2,0)
GPGPU-Sim uArch: core:  4, cta: 1 initialized @(2,0)
GPGPU-Sim uArch: core:  5, cta: 1 initialized @(2,0)
GPGPU-Sim uArch: core:  6, cta: 1 initialized @(2,0)
GPGPU-Sim uArch: core:  7, cta: 1 initialized @(2,0)
GPGPU-Sim uArch: core:  8, cta: 1 initialized @(2,0)
GPGPU-Sim uArch: core:  9, cta: 1 initialized @(2,0)
GPGPU-Sim uArch: core: 10, cta: 1 initialized @(2,0)
GPGPU-Sim uArch: core: 11, cta: 1 initialized @(2,0)
GPGPU-Sim uArch: core: 12, cta: 1 initialized @(2,0)
GPGPU-Sim uArch: core: 13, cta: 1 initialized @(2,0)
GPGPU-Sim uArch: core: 14, cta: 1 initialized @(2,0)
GPGPU-Sim uArch: core:  0, cta: 1 initialized @(2,0)
GPGPU-Sim uArch: core:  1, cta: 2 initialized @(3,0)
GPGPU-Sim uArch: core:  2, cta: 2 initialized @(3,0)
GPGPU-Sim uArch: core:  3, cta: 2 initialized @(3,0)
GPGPU-Sim uArch: core:  4, cta: 2 initialized @(3,0)
GPGPU-Sim uArch: core:  5, cta: 2 initialized @(3,0)
GPGPU-Sim uArch: core:  6, cta: 2 initialized @(3,0)
GPGPU-Sim uArch: core:  7, cta: 2 initialized @(3,0)
GPGPU-Sim uArch: core:  8, cta: 2 initialized @(3,0)
GPGPU-Sim uArch: core:  9, cta: 2 initialized @(3,0)
GPGPU-Sim uArch: core: 10, cta: 2 initialized @(3,0)
GPGPU-Sim uArch: core: 11, cta: 2 initialized @(3,0)
GPGPU-Sim uArch: core: 12, cta: 2 initialized @(3,0)
GPGPU-Sim uArch: core: 13, cta: 2 initialized @(3,0)
GPGPU-Sim uArch: core: 14, cta: 2 initialized @(3,0)
GPGPU-Sim uArch: core:  0, cta: 2 initialized @(3,0)
GPGPU-Sim uArch: Shader 4 finished CTA #2 (24650,0), 2 CTAs running
GPGPU-Sim uArch: core:  4, cta: 2 initialized @(24651,0)
GPGPU-Sim uArch: Shader 4 finished CTA #0 (24684,0), 2 CTAs running
GPGPU-Sim uArch: core:  4, cta: 0 initialized @(24685,0)
GPGPU-Sim uArch: Shader 4 finished CTA #1 (24959,0), 2 CTAs running
GPGPU-Sim uArch: core:  4, cta: 1 initialized @(24960,0)
GPGPU-Sim uArch: Shader 3 finished CTA #2 (25405,0), 2 CTAs running
GPGPU-Sim uArch: core:  3, cta: 2 initialized @(25406,0)
GPGPU-Sim uArch: Shader 3 finished CTA #0 (25422,0), 2 CTAs running
GPGPU-Sim uArch: core:  3, cta: 0 initialized @(25423,0)
GPGPU-Sim uArch: Shader 3 finished CTA #1 (25486,0), 2 CTAs running
GPGPU-Sim uArch: core:  3, cta: 1 initialized @(25487,0)
GPGPU-Sim uArch: Shader 12 finished CTA #2 (26414,0), 2 CTAs running
GPGPU-Sim uArch: core: 12, cta: 2 initialized @(26415,0)
GPGPU-Sim uArch: Shader 12 finished CTA #0 (26687,0), 2 CTAs running
GPGPU-Sim uArch: core: 12, cta: 0 initialized @(26688,0)
GPGPU-Sim uArch: Shader 8 finished CTA #2 (26771,0), 2 CTAs running
GPGPU-Sim uArch: core:  8, cta: 2 initialized @(26772,0)
GPGPU-Sim uArch: Shader 8 finished CTA #0 (27015,0), 2 CTAs running
GPGPU-Sim uArch: core:  8, cta: 0 initialized @(27016,0)
GPGPU-Sim uArch: Shader 6 finished CTA #0 (27061,0), 2 CTAs running
GPGPU-Sim uArch: core:  6, cta: 0 initialized @(27062,0)
GPGPU-Sim uArch: Shader 8 finished CTA #1 (27127,0), 2 CTAs running
GPGPU-Sim uArch: core:  8, cta: 1 initialized @(27128,0)
GPGPU-Sim uArch: Shader 5 finished CTA #2 (27152,0), 2 CTAs running
GPGPU-Sim uArch: core:  5, cta: 2 initialized @(27153,0)
GPGPU-Sim uArch: Shader 1 finished CTA #2 (27304,0), 2 CTAs running
GPGPU-Sim uArch: core:  1, cta: 2 initialized @(27305,0)
GPGPU-Sim uArch: Shader 5 finished CTA #0 (27305,0), 2 CTAs running
GPGPU-Sim uArch: core:  5, cta: 0 initialized @(27306,0)
GPGPU-Sim uArch: Shader 1 finished CTA #0 (27353,0), 2 CTAs running
GPGPU-Sim uArch: core:  1, cta: 0 initialized @(27354,0)
GPGPU-Sim uArch: Shader 1 finished CTA #1 (27497,0), 2 CTAs running
GPGPU-Sim uArch: core:  1, cta: 1 initialized @(27498,0)
GPGPU-Sim uArch: Shader 6 finished CTA #1 (27498,0), 2 CTAs running
GPGPU-Sim uArch: core:  6, cta: 1 initialized @(27499,0)
GPGPU-Sim uArch: Shader 13 finished CTA #2 (27807,0), 2 CTAs running
GPGPU-Sim uArch: core: 13, cta: 2 initialized @(27808,0)
GPGPU-Sim uArch: Shader 10 finished CTA #2 (27853,0), 2 CTAs running
GPGPU-Sim uArch: core: 10, cta: 2 initialized @(27854,0)
GPGPU-Sim uArch: Shader 2 finished CTA #0 (27859,0), 2 CTAs running
GPGPU-Sim uArch: core:  2, cta: 0 initialized @(27860,0)
GPGPU-Sim uArch: Shader 5 finished CTA #1 (27878,0), 2 CTAs running
GPGPU-Sim uArch: core:  5, cta: 1 initialized @(27879,0)
GPGPU-Sim uArch: Shader 13 finished CTA #0 (27895,0), 2 CTAs running
GPGPU-Sim uArch: core: 13, cta: 0 initialized @(27896,0)
GPGPU-Sim uArch: Shader 9 finished CTA #2 (27897,0), 2 CTAs running
GPGPU-Sim uArch: core:  9, cta: 2 initialized @(27898,0)
GPGPU-Sim uArch: Shader 10 finished CTA #0 (27920,0), 2 CTAs running
GPGPU-Sim uArch: core: 10, cta: 0 initialized @(27921,0)
GPGPU-Sim uArch: Shader 2 finished CTA #1 (28055,0), 2 CTAs running
GPGPU-Sim uArch: Shader 13 finished CTA #1 (28055,0), 2 CTAs running
GPGPU-Sim uArch: core: 13, cta: 1 initialized @(28056,0)
GPGPU-Sim uArch: core:  2, cta: 1 initialized @(28056,0)
GPGPU-Sim uArch: Shader 7 finished CTA #2 (28099,0), 2 CTAs running
GPGPU-Sim uArch: core:  7, cta: 2 initialized @(28100,0)
GPGPU-Sim uArch: Shader 7 finished CTA #0 (28388,0), 2 CTAs running
GPGPU-Sim uArch: core:  7, cta: 0 initialized @(28389,0)
GPGPU-Sim uArch: Shader 10 finished CTA #1 (28511,0), 2 CTAs running
GPGPU-Sim uArch: core: 10, cta: 1 initialized @(28512,0)
GPGPU-Sim uArch: Shader 9 finished CTA #0 (28708,0), 2 CTAs running
GPGPU-Sim uArch: core:  9, cta: 0 initialized @(28709,0)
GPGPU-Sim uArch: Shader 14 finished CTA #2 (28710,0), 2 CTAs running
GPGPU-Sim uArch: core: 14, cta: 2 initialized @(28711,0)
GPGPU-Sim uArch: Shader 2 finished CTA #2 (28715,0), 2 CTAs running
GPGPU-Sim uArch: core:  2, cta: 2 initialized @(28716,0)
GPGPU-Sim uArch: Shader 7 finished CTA #1 (28717,0), 2 CTAs running
GPGPU-Sim uArch: core:  7, cta: 1 initialized @(28718,0)
GPGPU-Sim uArch: Shader 14 finished CTA #0 (28727,0), 2 CTAs running
GPGPU-Sim uArch: core: 14, cta: 0 initialized @(28728,0)
GPGPU-Sim uArch: Shader 14 finished CTA #1 (28759,0), 2 CTAs running
GPGPU-Sim uArch: core: 14, cta: 1 initialized @(28760,0)
GPGPU-Sim uArch: Shader 11 finished CTA #0 (29117,0), 2 CTAs running
GPGPU-Sim uArch: core: 11, cta: 0 initialized @(29118,0)
GPGPU-Sim uArch: Shader 11 finished CTA #1 (29274,0), 2 CTAs running
GPGPU-Sim uArch: core: 11, cta: 1 initialized @(29275,0)
GPGPU-Sim uArch: Shader 11 finished CTA #2 (29324,0), 2 CTAs running
GPGPU-Sim uArch: core: 11, cta: 2 initialized @(29325,0)
GPGPU-Sim uArch: Shader 0 finished CTA #2 (29493,0), 2 CTAs running
GPGPU-Sim uArch: core:  0, cta: 2 initialized @(29494,0)
GPGPU-Sim uArch: Shader 0 finished CTA #0 (29781,0), 2 CTAs running
GPGPU-Sim uArch: core:  0, cta: 0 initialized @(29782,0)
GPGPU-Sim uArch: Shader 0 finished CTA #1 (30660,0), 2 CTAs running
GPGPU-Sim uArch: core:  0, cta: 1 initialized @(30661,0)
GPGPU-Sim uArch: Shader 12 finished CTA #1 (35202,0), 2 CTAs running
GPGPU-Sim uArch: core: 12, cta: 1 initialized @(35203,0)
GPGPU-Sim uArch: Shader 9 finished CTA #1 (37432,0), 2 CTAs running
GPGPU-Sim uArch: core:  9, cta: 1 initialized @(37433,0)
GPGPU-Sim uArch: Shader 6 finished CTA #2 (37790,0), 2 CTAs running
GPGPU-Sim uArch: core:  6, cta: 2 initialized @(37791,0)
GPGPU-Sim uArch: Shader 4 finished CTA #2 (45173,0), 2 CTAs running
GPGPU-Sim uArch: core:  4, cta: 2 initialized @(45174,0)
GPGPU-Sim uArch: Shader 3 finished CTA #2 (46096,0), 2 CTAs running
GPGPU-Sim uArch: core:  3, cta: 2 initialized @(46097,0)
GPGPU-Sim uArch: Shader 3 finished CTA #0 (46341,0), 2 CTAs running
GPGPU-Sim uArch: core:  3, cta: 0 initialized @(46342,0)
GPGPU-Sim uArch: Shader 4 finished CTA #0 (46882,0), 2 CTAs running
GPGPU-Sim uArch: core:  4, cta: 0 initialized @(46883,0)
GPGPU-Sim uArch: Shader 12 finished CTA #2 (47390,0), 2 CTAs running
GPGPU-Sim uArch: core: 12, cta: 2 initialized @(47391,0)
GPGPU-Sim uArch: Shader 9 finished CTA #2 (48019,0), 2 CTAs running
GPGPU-Sim uArch: core:  9, cta: 2 initialized @(48020,0)
GPGPU-Sim uArch: Shader 9 finished CTA #0 (48141,0), 2 CTAs running
GPGPU-Sim uArch: core:  9, cta: 0 initialized @(48142,0)
GPGPU-Sim uArch: Shader 6 finished CTA #0 (48749,0), 2 CTAs running
GPGPU-Sim uArch: core:  6, cta: 0 initialized @(48750,0)
GPGPU-Sim uArch: Shader 1 finished CTA #2 (48770,0), 2 CTAs running
GPGPU-Sim uArch: core:  1, cta: 2 initialized @(48771,0)
GPGPU-Sim uArch: Shader 5 finished CTA #2 (50078,0), 2 CTAs running
GPGPU-Sim uArch: core:  5, cta: 2 initialized @(50079,0)
GPGPU-Sim uArch: Shader 1 finished CTA #0 (50274,0), 2 CTAs running
GPGPU-Sim uArch: core:  1, cta: 0 initialized @(50275,0)
GPGPU-Sim uArch: Shader 5 finished CTA #0 (50313,0), 2 CTAs running
GPGPU-Sim uArch: core:  5, cta: 0 initialized @(50314,0)
GPGPU-Sim uArch: Shader 5 finished CTA #1 (50511,0), 2 CTAs running
GPGPU-Sim uArch: core:  5, cta: 1 initialized @(50512,0)
GPGPU-Sim uArch: Shader 2 finished CTA #0 (51147,0), 2 CTAs running
GPGPU-Sim uArch: core:  2, cta: 0 initialized @(51148,0)
GPGPU-Sim uArch: Shader 2 finished CTA #1 (51506,0), 2 CTAs running
GPGPU-Sim uArch: core:  2, cta: 1 initialized @(51507,0)
GPGPU-Sim uArch: Shader 2 finished CTA #2 (51563,0), 2 CTAs running
GPGPU-Sim uArch: core:  2, cta: 2 initialized @(51564,0)
GPGPU-Sim uArch: Shader 8 finished CTA #2 (51617,0), 2 CTAs running
GPGPU-Sim uArch: core:  8, cta: 2 initialized @(51618,0)
GPGPU-Sim uArch: Shader 8 finished CTA #0 (51774,0), 2 CTAs running
GPGPU-Sim uArch: core:  8, cta: 0 initialized @(51775,0)
GPGPU-Sim uArch: Shader 10 finished CTA #2 (52065,0), 2 CTAs running
GPGPU-Sim uArch: core: 10, cta: 2 initialized @(52066,0)
GPGPU-Sim uArch: Shader 8 finished CTA #1 (52161,0), 2 CTAs running
GPGPU-Sim uArch: core:  8, cta: 1 initialized @(52162,0)
GPGPU-Sim uArch: Shader 10 finished CTA #0 (52555,0), 2 CTAs running
GPGPU-Sim uArch: core: 10, cta: 0 initialized @(52556,0)
GPGPU-Sim uArch: Shader 13 finished CTA #2 (52789,0), 2 CTAs running
GPGPU-Sim uArch: core: 13, cta: 2 initialized @(52790,0)
GPGPU-Sim uArch: Shader 13 finished CTA #0 (52954,0), 2 CTAs running
GPGPU-Sim uArch: core: 13, cta: 0 initialized @(52955,0)
GPGPU-Sim uArch: Shader 14 finished CTA #2 (53089,0), 2 CTAs running
GPGPU-Sim uArch: core: 14, cta: 2 initialized @(53090,0)
GPGPU-Sim uArch: Shader 13 finished CTA #1 (53373,0), 2 CTAs running
GPGPU-Sim uArch: core: 13, cta: 1 initialized @(53374,0)
GPGPU-Sim uArch: Shader 12 finished CTA #0 (54897,0), 2 CTAs running
GPGPU-Sim uArch: core: 12, cta: 0 initialized @(54898,0)
GPGPU-Sim uArch: Shader 4 finished CTA #1 (55057,0), 2 CTAs running
GPGPU-Sim uArch: core:  4, cta: 1 initialized @(55058,0)
GPGPU-Sim uArch: Shader 7 finished CTA #0 (55320,0), 2 CTAs running
GPGPU-Sim uArch: core:  7, cta: 0 initialized @(55321,0)
GPGPU-Sim uArch: Shader 12 finished CTA #1 (55525,0), 2 CTAs running
GPGPU-Sim uArch: core: 12, cta: 1 initialized @(55526,0)
GPGPU-Sim uArch: Shader 7 finished CTA #2 (55541,0), 2 CTAs running
GPGPU-Sim uArch: core:  7, cta: 2 initialized @(55542,0)
GPGPU-Sim uArch: Shader 11 finished CTA #0 (56091,0), 2 CTAs running
GPGPU-Sim uArch: core: 11, cta: 0 initialized @(56092,0)
GPGPU-Sim uArch: Shader 0 finished CTA #2 (56182,0), 2 CTAs running
GPGPU-Sim uArch: core:  0, cta: 2 initialized @(56183,0)
GPGPU-Sim uArch: Shader 6 finished CTA #1 (56357,0), 2 CTAs running
GPGPU-Sim uArch: core:  6, cta: 1 initialized @(56358,0)
GPGPU-Sim uArch: Shader 0 finished CTA #0 (56373,0), 2 CTAs running
GPGPU-Sim uArch: core:  0, cta: 0 initialized @(56374,0)
GPGPU-Sim uArch: Shader 11 finished CTA #2 (56425,0), 2 CTAs running
GPGPU-Sim uArch: core: 11, cta: 2 initialized @(56426,0)
GPGPU-Sim uArch: Shader 0 finished CTA #1 (56435,0), 2 CTAs running
GPGPU-Sim uArch: core:  0, cta: 1 initialized @(56436,0)
GPGPU-Sim uArch: Shader 14 finished CTA #0 (56436,0), 2 CTAs running
GPGPU-Sim uArch: core: 14, cta: 0 initialized @(56437,0)
GPGPU-Sim uArch: Shader 11 finished CTA #1 (56517,0), 2 CTAs running
GPGPU-Sim uArch: core: 11, cta: 1 initialized @(56518,0)
GPGPU-Sim uArch: Shader 6 finished CTA #2 (57009,0), 2 CTAs running
GPGPU-Sim uArch: core:  6, cta: 2 initialized @(57010,0)
GPGPU-Sim uArch: Shader 3 finished CTA #1 (57154,0), 2 CTAs running
GPGPU-Sim uArch: core:  3, cta: 1 initialized @(57155,0)
GPGPU-Sim uArch: Shader 1 finished CTA #1 (58239,0), 2 CTAs running
GPGPU-Sim uArch: core:  1, cta: 1 initialized @(58240,0)
GPGPU-Sim uArch: Shader 9 finished CTA #1 (59611,0), 2 CTAs running
GPGPU-Sim uArch: core:  9, cta: 1 initialized @(59612,0)
GPGPU-Sim uArch: Shader 10 finished CTA #1 (62355,0), 2 CTAs running
GPGPU-Sim uArch: core: 10, cta: 1 initialized @(62356,0)
GPGPU-Sim uArch: Shader 4 finished CTA #2 (64485,0), 2 CTAs running
GPGPU-Sim uArch: core:  4, cta: 2 initialized @(64486,0)
GPGPU-Sim uArch: Shader 14 finished CTA #1 (64580,0), 2 CTAs running
GPGPU-Sim uArch: core: 14, cta: 1 initialized @(64581,0)
GPGPU-Sim uArch: Shader 7 finished CTA #1 (66282,0), 2 CTAs running
GPGPU-Sim uArch: core:  7, cta: 1 initialized @(66283,0)
GPGPU-Sim uArch: Shader 3 finished CTA #2 (68073,0), 2 CTAs running
GPGPU-Sim uArch: core:  3, cta: 2 initialized @(68074,0)
GPGPU-Sim uArch: Shader 12 finished CTA #2 (70847,0), 2 CTAs running
GPGPU-Sim uArch: core: 12, cta: 2 initialized @(70848,0)
GPGPU-Sim uArch: Shader 4 finished CTA #0 (70848,0), 2 CTAs running
GPGPU-Sim uArch: core:  4, cta: 0 initialized @(70849,0)
GPGPU-Sim uArch: Shader 9 finished CTA #2 (71157,0), 2 CTAs running
GPGPU-Sim uArch: core:  9, cta: 2 initialized @(71158,0)
GPGPU-Sim uArch: Shader 4 finished CTA #1 (71262,0), 2 CTAs running
GPGPU-Sim uArch: core:  4, cta: 1 initialized @(71263,0)
GPGPU-Sim uArch: Shader 1 finished CTA #2 (71921,0), 2 CTAs running
GPGPU-Sim uArch: core:  1, cta: 2 initialized @(71922,0)
GPGPU-Sim uArch: Shader 6 finished CTA #0 (72018,0), 2 CTAs running
GPGPU-Sim uArch: core:  6, cta: 0 initialized @(72019,0)
GPGPU-Sim uArch: Shader 5 finished CTA #2 (73159,0), 2 CTAs running
GPGPU-Sim uArch: Shader 6 finished CTA #1 (73159,0), 2 CTAs running
GPGPU-Sim uArch: core:  5, cta: 2 initialized @(73160,0)
GPGPU-Sim uArch: core:  6, cta: 1 initialized @(73160,0)
GPGPU-Sim uArch: Shader 14 finished CTA #2 (73395,0), 2 CTAs running
GPGPU-Sim uArch: core: 14, cta: 2 initialized @(73396,0)
GPGPU-Sim uArch: Shader 5 finished CTA #0 (73642,0), 2 CTAs running
GPGPU-Sim uArch: core:  5, cta: 0 initialized @(73643,0)
GPGPU-Sim uArch: Shader 3 finished CTA #0 (73914,0), 2 CTAs running
GPGPU-Sim uArch: core:  3, cta: 0 initialized @(73915,0)
GPGPU-Sim uArch: Shader 1 finished CTA #0 (74395,0), 2 CTAs running
GPGPU-Sim uArch: core:  1, cta: 0 initialized @(74396,0)
GPGPU-Sim uArch: Shader 3 finished CTA #1 (74459,0), 2 CTAs running
GPGPU-Sim uArch: core:  3, cta: 1 initialized @(74460,0)
GPGPU-Sim uArch: Shader 8 finished CTA #2 (74998,0), 2 CTAs running
GPGPU-Sim uArch: core:  8, cta: 2 initialized @(74999,0)
GPGPU-Sim uArch: Shader 8 finished CTA #0 (75278,0), 2 CTAs running
GPGPU-Sim uArch: core:  8, cta: 0 initialized @(75279,0)
GPGPU-Sim uArch: Shader 10 finished CTA #2 (76461,0), 2 CTAs running
GPGPU-Sim uArch: core: 10, cta: 2 initialized @(76462,0)
GPGPU-Sim uArch: Shader 10 finished CTA #0 (76894,0), 2 CTAs running
GPGPU-Sim uArch: core: 10, cta: 0 initialized @(76895,0)
GPGPU-Sim uArch: Shader 13 finished CTA #2 (76930,0), 2 CTAs running
GPGPU-Sim uArch: core: 13, cta: 2 initialized @(76931,0)
GPGPU-Sim uArch: Shader 10 finished CTA #1 (76996,0), 2 CTAs running
GPGPU-Sim uArch: core: 10, cta: 1 initialized @(76997,0)
GPGPU-Sim uArch: Shader 11 finished CTA #0 (77002,0), 2 CTAs running
GPGPU-Sim uArch: core: 11, cta: 0 initialized @(77003,0)
GPGPU-Sim uArch: Shader 11 finished CTA #1 (77307,0), 2 CTAs running
GPGPU-Sim uArch: core: 11, cta: 1 initialized @(77308,0)
GPGPU-Sim uArch: Shader 13 finished CTA #0 (77391,0), 2 CTAs running
GPGPU-Sim uArch: core: 13, cta: 0 initialized @(77392,0)
GPGPU-Sim uArch: Shader 2 finished CTA #0 (77473,0), 2 CTAs running
GPGPU-Sim uArch: core:  2, cta: 0 initialized @(77474,0)
GPGPU-Sim uArch: Shader 7 finished CTA #0 (77589,0), 2 CTAs running
GPGPU-Sim uArch: core:  7, cta: 0 initialized @(77590,0)
GPGPU-Sim uArch: Shader 11 finished CTA #2 (77640,0), 2 CTAs running
GPGPU-Sim uArch: core: 11, cta: 2 initialized @(77641,0)
GPGPU-Sim uArch: Shader 13 finished CTA #1 (77731,0), 2 CTAs running
GPGPU-Sim uArch: core: 13, cta: 1 initialized @(77732,0)
GPGPU-Sim uArch: Shader 2 finished CTA #1 (77775,0), 2 CTAs running
GPGPU-Sim uArch: core:  2, cta: 1 initialized @(77776,0)
GPGPU-Sim uArch: Shader 9 finished CTA #0 (78186,0), 2 CTAs running
GPGPU-Sim uArch: core:  9, cta: 0 initialized @(78187,0)
GPGPU-Sim uArch: Shader 12 finished CTA #0 (78376,0), 2 CTAs running
GPGPU-Sim uArch: core: 12, cta: 0 initialized @(78377,0)
GPGPU-Sim uArch: Shader 14 finished CTA #0 (80129,0), 2 CTAs running
GPGPU-Sim uArch: core: 14, cta: 0 initialized @(80130,0)
GPGPU-Sim uArch: Shader 14 finished CTA #1 (80467,0), 2 CTAs running
GPGPU-Sim uArch: core: 14, cta: 1 initialized @(80468,0)
GPGPU-Sim uArch: Shader 0 finished CTA #2 (80551,0), 2 CTAs running
GPGPU-Sim uArch: core:  0, cta: 2 initialized @(80552,0)
GPGPU-Sim uArch: Shader 0 finished CTA #1 (80961,0), 2 CTAs running
GPGPU-Sim uArch: core:  0, cta: 1 initialized @(80962,0)
GPGPU-Sim uArch: Shader 0 finished CTA #0 (81288,0), 2 CTAs running
GPGPU-Sim uArch: core:  0, cta: 0 initialized @(81289,0)
GPGPU-Sim uArch: Shader 5 finished CTA #1 (81535,0), 2 CTAs running
GPGPU-Sim uArch: core:  5, cta: 1 initialized @(81536,0)
GPGPU-Sim uArch: Shader 1 finished CTA #1 (81578,0), 2 CTAs running
GPGPU-Sim uArch: core:  1, cta: 1 initialized @(81579,0)
GPGPU-Sim uArch: Shader 4 finished CTA #2 (82019,0), 2 CTAs running
GPGPU-Sim uArch: core:  4, cta: 2 initialized @(82020,0)
GPGPU-Sim uArch: Shader 6 finished CTA #2 (82919,0), 2 CTAs running
GPGPU-Sim uArch: core:  6, cta: 2 initialized @(82920,0)
GPGPU-Sim uArch: Shader 7 finished CTA #2 (83901,0), 2 CTAs running
GPGPU-Sim uArch: core:  7, cta: 2 initialized @(83902,0)
GPGPU-Sim uArch: Shader 12 finished CTA #1 (84047,0), 2 CTAs running
GPGPU-Sim uArch: core: 12, cta: 1 initialized @(84048,0)
GPGPU-Sim uArch: Shader 8 finished CTA #1 (84599,0), 2 CTAs running
GPGPU-Sim uArch: core:  8, cta: 1 initialized @(84600,0)
GPGPU-Sim uArch: Shader 9 finished CTA #1 (86927,0), 2 CTAs running
GPGPU-Sim uArch: core:  9, cta: 1 initialized @(86928,0)
GPGPU-Sim uArch: Shader 2 finished CTA #2 (87512,0), 2 CTAs running
GPGPU-Sim uArch: core:  2, cta: 2 initialized @(87513,0)
GPGPU-Sim uArch: Shader 7 finished CTA #1 (89315,0), 2 CTAs running
GPGPU-Sim uArch: core:  7, cta: 1 initialized @(89316,0)
GPGPU-Sim uArch: Shader 12 finished CTA #2 (92600,0), 2 CTAs running
GPGPU-Sim uArch: core: 12, cta: 2 initialized @(92601,0)
GPGPU-Sim uArch: Shader 3 finished CTA #2 (92719,0), 2 CTAs running
GPGPU-Sim uArch: core:  3, cta: 2 initialized @(92720,0)
GPGPU-Sim uArch: Shader 3 finished CTA #0 (93205,0), 2 CTAs running
GPGPU-Sim uArch: core:  3, cta: 0 initialized @(93206,0)
GPGPU-Sim uArch: Shader 3 finished CTA #1 (93556,0), 2 CTAs running
GPGPU-Sim uArch: core:  3, cta: 1 initialized @(93557,0)
GPGPU-Sim uArch: Shader 4 finished CTA #0 (94131,0), 2 CTAs running
GPGPU-Sim uArch: core:  4, cta: 0 initialized @(94132,0)
GPGPU-Sim uArch: Shader 9 finished CTA #2 (94784,0), 2 CTAs running
GPGPU-Sim uArch: core:  9, cta: 2 initialized @(94785,0)
GPGPU-Sim uArch: Shader 9 finished CTA #0 (94942,0), 2 CTAs running
GPGPU-Sim uArch: core:  9, cta: 0 initialized @(94943,0)
GPGPU-Sim uArch: Shader 6 finished CTA #0 (95051,0), 2 CTAs running
GPGPU-Sim uArch: core:  6, cta: 0 initialized @(95052,0)
GPGPU-Sim uArch: Shader 5 finished CTA #2 (96091,0), 2 CTAs running
GPGPU-Sim uArch: core:  5, cta: 2 initialized @(96092,0)
GPGPU-Sim uArch: Shader 12 finished CTA #0 (96248,0), 2 CTAs running
GPGPU-Sim uArch: core: 12, cta: 0 initialized @(96249,0)
GPGPU-Sim uArch: Shader 5 finished CTA #0 (96301,0), 2 CTAs running
GPGPU-Sim uArch: core:  5, cta: 0 initialized @(96302,0)
GPGPU-Sim uArch: Shader 5 finished CTA #1 (96554,0), 2 CTAs running
GPGPU-Sim uArch: core:  5, cta: 1 initialized @(96555,0)
GPGPU-Sim uArch: Shader 14 finished CTA #2 (97838,0), 2 CTAs running
GPGPU-Sim uArch: core: 14, cta: 2 initialized @(97839,0)
GPGPU-Sim uArch: Shader 1 finished CTA #2 (98046,0), 2 CTAs running
GPGPU-Sim uArch: core:  1, cta: 2 initialized @(98047,0)
GPGPU-Sim uArch: Shader 8 finished CTA #2 (98227,0), 2 CTAs running
GPGPU-Sim uArch: core:  8, cta: 2 initialized @(98228,0)
GPGPU-Sim uArch: Shader 14 finished CTA #0 (98296,0), 2 CTAs running
GPGPU-Sim uArch: core: 14, cta: 0 initialized @(98297,0)
GPGPU-Sim uArch: Shader 13 finished CTA #2 (98325,0), 2 CTAs running
GPGPU-Sim uArch: core: 13, cta: 2 initialized @(98326,0)
GPGPU-Sim uArch: Shader 1 finished CTA #0 (98333,0), 2 CTAs running
GPGPU-Sim uArch: core:  1, cta: 0 initialized @(98334,0)
GPGPU-Sim uArch: Shader 2 finished CTA #0 (98377,0), 2 CTAs running
GPGPU-Sim uArch: core:  2, cta: 0 initialized @(98378,0)
GPGPU-Sim uArch: Shader 4 finished CTA #1 (98942,0), 2 CTAs running
GPGPU-Sim uArch: core:  4, cta: 1 initialized @(98943,0)
GPGPU-Sim uArch: Shader 1 finished CTA #1 (98966,0), 2 CTAs running
GPGPU-Sim uArch: core:  1, cta: 1 initialized @(98967,0)
GPGPU-Sim uArch: Shader 13 finished CTA #0 (98996,0), 2 CTAs running
GPGPU-Sim uArch: core: 13, cta: 0 initialized @(98997,0)
GPGPU-Sim uArch: Shader 11 finished CTA #0 (100081,0), 2 CTAs running
GPGPU-Sim uArch: core: 11, cta: 0 initialized @(100082,0)
GPGPU-Sim uArch: Shader 10 finished CTA #2 (100780,0), 2 CTAs running
GPGPU-Sim uArch: core: 10, cta: 2 initialized @(100781,0)
GPGPU-Sim uArch: Shader 10 finished CTA #0 (100846,0), 2 CTAs running
GPGPU-Sim uArch: core: 10, cta: 0 initialized @(100847,0)
GPGPU-Sim uArch: Shader 8 finished CTA #0 (100855,0), 2 CTAs running
GPGPU-Sim uArch: core:  8, cta: 0 initialized @(100856,0)
GPGPU-Sim uArch: Shader 6 finished CTA #1 (101391,0), 2 CTAs running
GPGPU-Sim uArch: core:  6, cta: 1 initialized @(101392,0)
GPGPU-Sim uArch: Shader 10 finished CTA #1 (101407,0), 2 CTAs running
GPGPU-Sim uArch: core: 10, cta: 1 initialized @(101408,0)
GPGPU-Sim uArch: Shader 7 finished CTA #0 (102109,0), 2 CTAs running
GPGPU-Sim uArch: core:  7, cta: 0 initialized @(102110,0)
GPGPU-Sim uArch: Shader 11 finished CTA #1 (102113,0), 2 CTAs running
GPGPU-Sim uArch: core: 11, cta: 1 initialized @(102114,0)
GPGPU-Sim uArch: Shader 0 finished CTA #2 (103087,0), 2 CTAs running
GPGPU-Sim uArch: core:  0, cta: 2 initialized @(103088,0)
GPGPU-Sim uArch: Shader 0 finished CTA #1 (103917,0), 2 CTAs running
GPGPU-Sim uArch: core:  0, cta: 1 initialized @(103918,0)
GPGPU-Sim uArch: Shader 0 finished CTA #0 (104052,0), 2 CTAs running
GPGPU-Sim uArch: core:  0, cta: 0 initialized @(104053,0)
GPGPU-Sim uArch: Shader 2 finished CTA #1 (104558,0), 2 CTAs running
GPGPU-Sim uArch: core:  2, cta: 1 initialized @(104559,0)
GPGPU-Sim uArch: Shader 6 finished CTA #2 (104812,0), 2 CTAs running
GPGPU-Sim uArch: core:  6, cta: 2 initialized @(104813,0)
GPGPU-Sim uArch: Shader 12 finished CTA #1 (105542,0), 2 CTAs running
GPGPU-Sim uArch: core: 12, cta: 1 initialized @(105543,0)
GPGPU-Sim uArch: Shader 11 finished CTA #2 (106434,0), 2 CTAs running
GPGPU-Sim uArch: core: 11, cta: 2 initialized @(106435,0)
GPGPU-Sim uArch: Shader 4 finished CTA #2 (106929,0), 2 CTAs running
GPGPU-Sim uArch: core:  4, cta: 2 initialized @(106930,0)
GPGPU-Sim uArch: Shader 7 finished CTA #2 (107667,0), 2 CTAs running
GPGPU-Sim uArch: core:  7, cta: 2 initialized @(107668,0)
GPGPU-Sim uArch: Shader 13 finished CTA #1 (108284,0), 2 CTAs running
GPGPU-Sim uArch: core: 13, cta: 1 initialized @(108285,0)
GPGPU-Sim uArch: Shader 14 finished CTA #1 (109962,0), 2 CTAs running
GPGPU-Sim uArch: core: 14, cta: 1 initialized @(109963,0)
GPGPU-Sim uArch: Shader 2 finished CTA #2 (112120,0), 2 CTAs running
GPGPU-Sim uArch: core:  2, cta: 2 initialized @(112121,0)
GPGPU-Sim uArch: Shader 9 finished CTA #1 (114163,0), 2 CTAs running
GPGPU-Sim uArch: core:  9, cta: 1 initialized @(114164,0)
GPGPU-Sim uArch: Shader 9 finished CTA #0 (114298,0), 2 CTAs running
GPGPU-Sim uArch: core:  9, cta: 0 initialized @(114299,0)
GPGPU-Sim uArch: Shader 9 finished CTA #2 (114441,0), 2 CTAs running
GPGPU-Sim uArch: core:  9, cta: 2 initialized @(114442,0)
GPGPU-Sim uArch: Shader 8 finished CTA #1 (114505,0), 2 CTAs running
GPGPU-Sim uArch: core:  8, cta: 1 initialized @(114506,0)
[...]
dram[2]:       5962      5556      2722      3679      5281      3752      2705      4324      2922      3355      7575      3919      3784      3572      5864      4012
dram[3]:       6676      5530      2529      2746      5756      3711      2928      3251      3274      3931      4617      3081      3605      3364      5907      3895
dram[4]:       4978      3961      6520      2651      3707      2908      4262      3132      3263      3240      5608      2679      3921      4560      3365      5069
dram[5]:       5987      4031      2530      3190      2846      3064      2889      3618      3499      3307      4093      2782      3331      3688      3306      6080
Memory Partition 0: 
Cache L2_bank_000:
MSHR contents

Cache L2_bank_001:
MSHR contents

In Dram Latency Queue (total = 0): 
DRAM[0]: 16 bks, busW=4 BL=8 CL=12, tRRD=2 tCCD=6, tRCD=12 tRAS=28 tRP=12 tRC=40
n_cmd=9275133 n_nop=7115772 n_act=394475 n_pre=394459 n_req=692838 n_rd=790430 n_write=579997 bw_util=0.2955
n_activity=6080583 dram_eff=0.4508
bk0: 67900a 7021945i bk1: 39430a 8097653i bk2: 57654a 7305226i bk3: 38682a 8106312i bk4: 54378a 7336550i bk5: 37932a 8124432i bk6: 71340a 6816927i bk7: 39998a 7991187i bk8: 52802a 7501787i bk9: 37798a 8180063i bk10: 59214a 7242157i bk11: 38442a 8127317i bk12: 66436a 6990800i bk13: 39290a 8046529i bk14: 51414a 7403162i bk15: 37720a 8108542i 
dram_util_bins: 0 0 0 0 0 0 0 0 0 0
dram_eff_bins: 0 0 0 0 0 0 0 0 0 0
mrqq: max=16 avg=4.96785
Memory Partition 1: 
Cache L2_bank_002:
MSHR contents

Cache L2_bank_003:
MSHR contents

In Dram Latency Queue (total = 0): 
DRAM[1]: 16 bks, busW=4 BL=8 CL=12, tRRD=2 tCCD=6, tRCD=12 tRAS=28 tRP=12 tRC=40
n_cmd=9275133 n_nop=7183262 n_act=376598 n_pre=376582 n_req=677014 n_rd=768946 n_write=569745 bw_util=0.2887
n_activity=6048248 dram_eff=0.4427
bk0: 37926a 8232139i bk1: 65548a 7128588i bk2: 37174a 8212151i bk3: 57996a 7295826i bk4: 36492a 8223287i bk5: 51034a 7482611i bk6: 38632a 8139373i bk7: 69358a 6906376i bk8: 36502a 8268736i bk9: 52680a 7520715i bk10: 37212a 8226638i bk11: 55496a 7400213i bk12: 38182a 8170817i bk13: 68586a 6923975i bk14: 36268a 8193184i bk15: 49860a 7486440i 
dram_util_bins: 0 0 0 0 0 0 0 0 0 0
dram_eff_bins: 0 0 0 0 0 0 0 0 0 0
mrqq: max=16 avg=4.73286
Memory Partition 2: 
Cache L2_bank_004:
MSHR contents

Cache L2_bank_005:
MSHR contents

In Dram Latency Queue (total = 0): 
DRAM[2]: 16 bks, busW=4 BL=8 CL=12, tRRD=2 tCCD=6, tRCD=12 tRAS=28 tRP=12 tRC=40
n_cmd=9275133 n_nop=7167016 n_act=379473 n_pre=379457 n_req=682414 n_rd=773398 n_write=575789 bw_util=0.2909
n_activity=6043515 dram_eff=0.4465
bk0: 38720a 8199457i bk1: 67374a 7037617i bk2: 37886a 8172904i bk3: 55398a 7368207i bk4: 36992a 8193231i bk5: 53532a 7386791i bk6: 39298a 8087373i bk7: 68526a 6907032i bk8: 36974a 8225019i bk9: 51134a 7553339i bk10: 37508a 8198049i bk11: 58974a 7246106i bk12: 38666a 8130260i bk13: 65170a 7021503i bk14: 36842a 8167177i bk15: 50404a 7444224i 
dram_util_bins: 0 0 0 0 0 0 0 0 0 0
dram_eff_bins: 0 0 0 0 0 0 0 0 0 0
mrqq: max=16 avg=4.74753
Memory Partition 3: 
Cache L2_bank_006:
MSHR contents

Cache L2_bank_007:
MSHR contents

In Dram Latency Queue (total = 0): 
DRAM[3]: 16 bks, busW=4 BL=8 CL=12, tRRD=2 tCCD=6, tRCD=12 tRAS=28 tRP=12 tRC=40
n_cmd=9275133 n_nop=7182022 n_act=376665 n_pre=376649 n_req=677556 n_rd=769222 n_write=570575 bw_util=0.2889
n_activity=6052702 dram_eff=0.4427
bk0: 66294a 7114750i bk1: 38100a 8186441i bk2: 58666a 7285119i bk3: 37052a 8197955i bk4: 50758a 7516004i bk5: 36634a 8220239i bk6: 69122a 6923661i bk7: 38680a 8083033i bk8: 52940a 7526864i bk9: 36480a 8268901i bk10: 55236a 7434627i bk11: 37340a 8211467i bk12: 67690a 6975175i bk13: 38050a 8132369i bk14: 49938a 7497898i bk15: 36242a 8206598i 
dram_util_bins: 0 0 0 0 0 0 0 0 0 0
dram_eff_bins: 0 0 0 0 0 0 0 0 0 0
mrqq: max=16 avg=4.72569
Memory Partition 4: 
Cache L2_bank_008:
MSHR contents

Cache L2_bank_009:
MSHR contents

In Dram Latency Queue (total = 0): 
DRAM[4]: 16 bks, busW=4 BL=8 CL=12, tRRD=2 tCCD=6, tRCD=12 tRAS=28 tRP=12 tRC=40
n_cmd=9275133 n_nop=7119000 n_act=393622 n_pre=393606 n_req=692161 n_rd=789532 n_write=579373 bw_util=0.2952
n_activity=6068414 dram_eff=0.4512
bk0: 69260a 6981050i bk1: 39438a 8105729i bk2: 57044a 7330318i bk3: 38684a 8110843i bk4: 54406a 7352982i bk5: 37770a 8128288i bk6: 70226a 6852119i bk7: 40050a 7988882i bk8: 52700a 7523237i bk9: 37778a 8181548i bk10: 59560a 7236434i bk11: 38410a 8118326i bk12: 65978a 7001331i bk13: 39188a 8051785i bk14: 51392a 7396583i bk15: 37648a 8105780i 
dram_util_bins: 0 0 0 0 0 0 0 0 0 0
dram_eff_bins: 0 0 0 0 0 0 0 0 0 0
mrqq: max=16 avg=4.91595
Memory Partition 5: 
Cache L2_bank_010:
MSHR contents

Cache L2_bank_011:
MSHR contents

In Dram Latency Queue (total = 0): 
DRAM[5]: 16 bks, busW=4 BL=8 CL=12, tRRD=2 tCCD=6, tRCD=12 tRAS=28 tRP=12 tRC=40
n_cmd=9275133 n_nop=7130142 n_act=392613 n_pre=392597 n_req=687610 n_rd=785730 n_write=574051 bw_util=0.2932
n_activity=6083291 dram_eff=0.4471
bk0: 38728a 8183906i bk1: 67394a 7044995i bk2: 37768a 8172111i bk3: 59070a 7249745i bk4: 37278a 8171917i bk5: 52322a 7435725i bk6: 39402a 8078056i bk7: 71982a 6797483i bk8: 37242a 8220151i bk9: 53974a 7450981i bk10: 37930a 8174931i bk11: 57494a 7310176i bk12: 38782a 8126215i bk13: 68260a 6912695i bk14: 37168a 8145448i bk15: 50936a 7433758i 
dram_util_bins: 0 0 0 0 0 0 0 0 0 0
dram_eff_bins: 0 0 0 0 0 0 0 0 0 0
mrqq: max=16 avg=4.97184

========= L2 cache stats =========
L2_cache_bank[0]: Access = 772814, Miss = 240569, Miss_rate = 0.311, Pending_hits = 15883, Reservation_fails = 137096
L2_cache_bank[1]: Access = 627704, Miss = 154646, Miss_rate = 0.246, Pending_hits = 9144, Reservation_fails = 8630
L2_cache_bank[2]: Access = 613481, Miss = 149194, Miss_rate = 0.243, Pending_hits = 8742, Reservation_fails = 6220
L2_cache_bank[3]: Access = 757102, Miss = 235279, Miss_rate = 0.311, Pending_hits = 16109, Reservation_fails = 121414
L2_cache_bank[4]: Access = 615641, Miss = 151443, Miss_rate = 0.246, Pending_hits = 8985, Reservation_fails = 7344
L2_cache_bank[5]: Access = 759425, Miss = 235256, Miss_rate = 0.310, Pending_hits = 15573, Reservation_fails = 112722
L2_cache_bank[6]: Access = 758355, Miss = 235322, Miss_rate = 0.310, Pending_hits = 16139, Reservation_fails = 122352
L2_cache_bank[7]: Access = 613124, Miss = 149289, Miss_rate = 0.243, Pending_hits = 8744, Reservation_fails = 8003
L2_cache_bank[8]: Access = 770240, Miss = 240283, Miss_rate = 0.312, Pending_hits = 15848, Reservation_fails = 125955
L2_cache_bank[9]: Access = 627508, Miss = 154483, Miss_rate = 0.246, Pending_hits = 9283, Reservation_fails = 8890
L2_cache_bank[10]: Access = 623976, Miss = 152149, Miss_rate = 0.244, Pending_hits = 8946, Reservation_fails = 6989
L2_cache_bank[11]: Access = 772394, Miss = 240716, Miss_rate = 0.312, Pending_hits = 16468, Reservation_fails = 162768
L2_total_cache_accesses = 8311764
L2_total_cache_misses = 2338629
L2_total_cache_miss_rate = 0.2814
L2_total_cache_pending_hits = 149864
L2_total_cache_reservation_fails = 828383
L2_total_cache_breakdown:
	L2_cache_stats_breakdown[GLOBAL_ACC_R][HIT] = 2228966
	L2_cache_stats_breakdown[GLOBAL_ACC_R][HIT_RESERVED] = 57136
	L2_cache_stats_breakdown[GLOBAL_ACC_R][MISS] = 2002785
	L2_cache_stats_breakdown[GLOBAL_ACC_R][RESERVATION_FAIL] = 790805
	L2_cache_stats_breakdown[CONST_ACC_R][HIT] = 34
	L2_cache_stats_breakdown[CONST_ACC_R][HIT_RESERVED] = 8
	L2_cache_stats_breakdown[CONST_ACC_R][MISS] = 3
	L2_cache_stats_breakdown[CONST_ACC_R][RESERVATION_FAIL] = 123
	L2_cache_stats_breakdown[GLOBAL_ACC_W][HIT] = 3573306
	L2_cache_stats_breakdown[GLOBAL_ACC_W][HIT_RESERVED] = 92586
	L2_cache_stats_breakdown[GLOBAL_ACC_W][MISS] = 335747
	L2_cache_stats_breakdown[GLOBAL_ACC_W][RESERVATION_FAIL] = 34406
	L2_cache_stats_breakdown[INST_ACC_R][HIT] = 20965
	L2_cache_stats_breakdown[INST_ACC_R][HIT_RESERVED] = 134
	L2_cache_stats_breakdown[INST_ACC_R][MISS] = 94
	L2_cache_stats_breakdown[INST_ACC_R][RESERVATION_FAIL] = 3049
L2_cache_data_port_util = 0.176
L2_cache_fill_port_util = 0.109

icnt_total_pkts_mem_to_simt=19837160
icnt_total_pkts_simt_to_mem=18289979
LD_mem_lat_dist  0 0 0 0 0 0 0 0 0 0 0 0 0 0 0 0 0 0 0 0 0 0 0 0 0 0 0
ST_mem_lat_dist  0 0 0 0 0 0 0 0 0 0 0 0 0 0 0 0 0 0 0 0 0 0 0 0 0 0 0
----------------------------Interconnect-DETAILS--------------------------------
Class 0:
Packet latency average = 23.2556
	minimum = 6
	maximum = 404
Network latency average = 16.8866
	minimum = 6
	maximum = 399
Slowest packet = 14184294
Flit latency average = 15.8148
	minimum = 6
	maximum = 399
Slowest flit = 31957810
Fragmentation average = 0.00446458
	minimum = 0
	maximum = 331
Injected packet rate average = 0.0978819
	minimum = 0.0844345 (at node 0)
	maximum = 0.110494 (at node 26)
Accepted packet rate average = 0.0978819
	minimum = 0.0844345 (at node 0)
	maximum = 0.110494 (at node 26)
Injected flit rate average = 0.247694
	minimum = 0.174789 (at node 23)
	maximum = 0.320122 (at node 10)
Accepted flit rate average= 0.247694
	minimum = 0.134254 (at node 0)
	maximum = 0.382772 (at node 20)
Injected packet length average = 2.53054
Accepted packet length average = 2.53054
Total in-flight flits = 0 (0 measured)
====== Overall Traffic Statistics ======
====== Traffic class 0 ======
Packet latency average = 23.546 (7 samples)
	minimum = 6 (7 samples)
	maximum = 392 (7 samples)
Network latency average = 16.8165 (7 samples)
	minimum = 6 (7 samples)
	maximum = 330.857 (7 samples)
Flit latency average = 14.186 (7 samples)
	minimum = 6 (7 samples)
	maximum = 328.429 (7 samples)
Fragmentation average = 0.0597206 (7 samples)
	minimum = 0 (7 samples)
	maximum = 224.857 (7 samples)
Injected packet rate average = 0.0497373 (7 samples)
	minimum = 0.0408038 (7 samples)
	maximum = 0.0626079 (7 samples)
Accepted packet rate average = 0.0497373 (7 samples)
	minimum = 0.0408038 (7 samples)
	maximum = 0.0626079 (7 samples)
Injected flit rate average = 0.123956 (7 samples)
	minimum = 0.0824426 (7 samples)
	maximum = 0.183349 (7 samples)
Accepted flit rate average = 0.123956 (7 samples)
	minimum = 0.0739178 (7 samples)
	maximum = 0.170151 (7 samples)
Injected packet size average = 2.49221 (7 samples)
Accepted packet size average = 2.49221 (7 samples)
Hops average = 1 (7 samples)
----------------------------END-of-Interconnect-DETAILS-------------------------


gpgpu_simulation_time = 0 days, 1 hrs, 17 min, 23 sec (4643 sec)
gpgpu_simulation_rate = 304218 (inst/sec)
gpgpu_simulation_rate = 1535 (cycle/sec)

GPGPU-Sim PTX: cudaLaunch for 0x0x4071f0 (mode=performance simulation) on stream 0
GPGPU-Sim PTX: pushing kernel '_Z9splitSortiiPjS_S_' to stream 0, gridDim= (2594,1,1) blockDim = (256,1,1) 
####  CUstream_st::push: Start pushing kernel: splitSort  ####
####  CUstream_st::push: Repeated splitSort encountered  ####
####  CUstream_st::push: Closing stream ####

GPGPU-Sim PTX: cudaLaunch for 0x0x406f90 (mode=performance simulation) on stream 0
GPGPU-Sim PTX: pushing kernel '_Z14scan_L1_kerneljPjS_' to stream 0, gridDim= (41,1,1) blockDim = (512,1,1) 

GPGPU-Sim PTX: cudaLaunch for 0x0x406ed0 (mode=performance simulation) on stream 0
GPGPU-Sim PTX: pushing kernel '_Z18scan_inter1_kernelPjj' to stream 0, gridDim= (1,1,1) blockDim = (64,1,1) 

GPGPU-Sim PTX: cudaLaunch for 0x0x406f30 (mode=performance simulation) on stream 0
GPGPU-Sim PTX: pushing kernel '_Z18scan_inter2_kernelPjj' to stream 0, gridDim= (1,1,1) blockDim = (64,1,1) 

GPGPU-Sim PTX: cudaLaunch for 0x0x407010 (mode=performance simulation) on stream 0
GPGPU-Sim PTX: pushing kernel '_Z10uniformAddjPjS_' to stream 0, gridDim= (41,1,1) blockDim = (512,1,1) 

GPGPU-Sim PTX: cudaLaunch for 0x0x407300 (mode=performance simulation) on stream 0
GPGPU-Sim PTX: pushing kernel '_Z14splitRearrangeiiPjS_S_S_S_' to stream 0, gridDim= (2594,1,1) blockDim = (256,1,1) 

GPGPU-Sim PTX: cudaLaunch for 0x0x4071f0 (mode=performance simulation) on stream 0
GPGPU-Sim PTX: pushing kernel '_Z9splitSortiiPjS_S_' to stream 0, gridDim= (2594,1,1) blockDim = (256,1,1) 

GPGPU-Sim PTX: cudaLaunch for 0x0x406f90 (mode=performance simulation) on stream 0
GPGPU-Sim PTX: pushing kernel '_Z14scan_L1_kerneljPjS_' to stream 0, gridDim= (41,1,1) blockDim = (512,1,1) 

GPGPU-Sim PTX: cudaLaunch for 0x0x406ed0 (mode=performance simulation) on stream 0
GPGPU-Sim PTX: pushing kernel '_Z18scan_inter1_kernelPjj' to stream 0, gridDim= (1,1,1) blockDim = (64,1,1) 

GPGPU-Sim PTX: cudaLaunch for 0x0x406f30 (mode=performance simulation) on stream 0
GPGPU-Sim PTX: pushing kernel '_Z18scan_inter2_kernelPjj' to stream 0, gridDim= (1,1,1) blockDim = (64,1,1) 

GPGPU-Sim PTX: cudaLaunch for 0x0x407010 (mode=performance simulation) on stream 0
GPGPU-Sim PTX: pushing kernel '_Z10uniformAddjPjS_' to stream 0, gridDim= (41,1,1) blockDim = (512,1,1) 

GPGPU-Sim PTX: cudaLaunch for 0x0x407300 (mode=performance simulation) on stream 0
GPGPU-Sim PTX: pushing kernel '_Z14splitRearrangeiiPjS_S_S_S_' to stream 0, gridDim= (2594,1,1) blockDim = (256,1,1) 

GPGPU-Sim PTX: cudaLaunch for 0x0x4071f0 (mode=performance simulation) on stream 0
GPGPU-Sim PTX: pushing kernel '_Z9splitSortiiPjS_S_' to stream 0, gridDim= (2594,1,1) blockDim = (256,1,1) 

GPGPU-Sim PTX: cudaLaunch for 0x0x406f90 (mode=performance simulation) on stream 0
GPGPU-Sim PTX: pushing kernel '_Z14scan_L1_kerneljPjS_' to stream 0, gridDim= (41,1,1) blockDim = (512,1,1) 

GPGPU-Sim PTX: cudaLaunch for 0x0x406ed0 (mode=performance simulation) on stream 0
GPGPU-Sim PTX: pushing kernel '_Z18scan_inter1_kernelPjj' to stream 0, gridDim= (1,1,1) blockDim = (64,1,1) 

GPGPU-Sim PTX: cudaLaunch for 0x0x406f30 (mode=performance simulation) on stream 0
GPGPU-Sim PTX: pushing kernel '_Z18scan_inter2_kernelPjj' to stream 0, gridDim= (1,1,1) blockDim = (64,1,1) 

GPGPU-Sim PTX: cudaLaunch for 0x0x407010 (mode=performance simulation) on stream 0
GPGPU-Sim PTX: pushing kernel '_Z10uniformAddjPjS_' to stream 0, gridDim= (41,1,1) blockDim = (512,1,1) 

GPGPU-Sim PTX: cudaLaunch for 0x0x407300 (mode=performance simulation) on stream 0
GPGPU-Sim PTX: pushing kernel '_Z14splitRearrangeiiPjS_S_S_S_' to stream 0, gridDim= (2594,1,1) blockDim = (256,1,1) 

GPGPU-Sim PTX: cudaLaunch for 0x0x4071f0 (mode=performance simulation) on stream 0
GPGPU-Sim PTX: pushing kernel '_Z9splitSortiiPjS_S_' to stream 0, gridDim= (2594,1,1) blockDim = (256,1,1) 

GPGPU-Sim PTX: cudaLaunch for 0x0x406f90 (mode=performance simulation) on stream 0
GPGPU-Sim PTX: pushing kernel '_Z14scan_L1_kerneljPjS_' to stream 0, gridDim= (41,1,1) blockDim = (512,1,1) 

GPGPU-Sim PTX: cudaLaunch for 0x0x406ed0 (mode=performance simulation) on stream 0
GPGPU-Sim PTX: pushing kernel '_Z18scan_inter1_kernelPjj' to stream 0, gridDim= (1,1,1) blockDim = (64,1,1) 

GPGPU-Sim PTX: cudaLaunch for 0x0x406f30 (mode=performance simulation) on stream 0
GPGPU-Sim PTX: pushing kernel '_Z18scan_inter2_kernelPjj' to stream 0, gridDim= (1,1,1) blockDim = (64,1,1) 

GPGPU-Sim PTX: cudaLaunch for 0x0x407010 (mode=performance simulation) on stream 0
GPGPU-Sim PTX: pushing kernel '_Z10uniformAddjPjS_' to stream 0, gridDim= (41,1,1) blockDim = (512,1,1) 

GPGPU-Sim PTX: cudaLaunch for 0x0x407300 (mode=performance simulation) on stream 0
GPGPU-Sim PTX: pushing kernel '_Z14splitRearrangeiiPjS_S_S_S_' to stream 0, gridDim= (2594,1,1) blockDim = (256,1,1) 

GPGPU-Sim PTX: cudaLaunch for 0x0x4071f0 (mode=performance simulation) on stream 0
GPGPU-Sim PTX: pushing kernel '_Z9splitSortiiPjS_S_' to stream 0, gridDim= (2594,1,1) blockDim = (256,1,1) 

GPGPU-Sim PTX: cudaLaunch for 0x0x406f90 (mode=performance simulation) on stream 0
GPGPU-Sim PTX: pushing kernel '_Z14scan_L1_kerneljPjS_' to stream 0, gridDim= (41,1,1) blockDim = (512,1,1) 

GPGPU-Sim PTX: cudaLaunch for 0x0x406ed0 (mode=performance simulation) on stream 0
GPGPU-Sim PTX: pushing kernel '_Z18scan_inter1_kernelPjj' to stream 0, gridDim= (1,1,1) blockDim = (64,1,1) 

GPGPU-Sim PTX: cudaLaunch for 0x0x406f30 (mode=performance simulation) on stream 0
GPGPU-Sim PTX: pushing kernel '_Z18scan_inter2_kernelPjj' to stream 0, gridDim= (1,1,1) blockDim = (64,1,1) 

GPGPU-Sim PTX: cudaLaunch for 0x0x407010 (mode=performance simulation) on stream 0
GPGPU-Sim PTX: pushing kernel '_Z10uniformAddjPjS_' to stream 0, gridDim= (41,1,1) blockDim = (512,1,1) 

GPGPU-Sim PTX: cudaLaunch for 0x0x407300 (mode=performance simulation) on stream 0
GPGPU-Sim PTX: pushing kernel '_Z14splitRearrangeiiPjS_S_S_S_' to stream 0, gridDim= (2594,1,1) blockDim = (256,1,1) 

GPGPU-Sim PTX: cudaLaunch for 0x0x4071f0 (mode=performance simulation) on stream 0
GPGPU-Sim PTX: pushing kernel '_Z9splitSortiiPjS_S_' to stream 0, gridDim= (2594,1,1) blockDim = (256,1,1) 

GPGPU-Sim PTX: cudaLaunch for 0x0x406f90 (mode=performance simulation) on stream 0
GPGPU-Sim PTX: pushing kernel '_Z14scan_L1_kerneljPjS_' to stream 0, gridDim= (41,1,1) blockDim = (512,1,1) 

GPGPU-Sim PTX: cudaLaunch for 0x0x406ed0 (mode=performance simulation) on stream 0
GPGPU-Sim PTX: pushing kernel '_Z18scan_inter1_kernelPjj' to stream 0, gridDim= (1,1,1) blockDim = (64,1,1) 

GPGPU-Sim PTX: cudaLaunch for 0x0x406f30 (mode=performance simulation) on stream 0
GPGPU-Sim PTX: pushing kernel '_Z18scan_inter2_kernelPjj' to stream 0, gridDim= (1,1,1) blockDim = (64,1,1) 

GPGPU-Sim PTX: cudaLaunch for 0x0x407010 (mode=performance simulation) on stream 0
GPGPU-Sim PTX: pushing kernel '_Z10uniformAddjPjS_' to stream 0, gridDim= (41,1,1) blockDim = (512,1,1) 

GPGPU-Sim PTX: cudaLaunch for 0x0x407300 (mode=performance simulation) on stream 0
GPGPU-Sim PTX: pushing kernel '_Z14splitRearrangeiiPjS_S_S_S_' to stream 0, gridDim= (2594,1,1) blockDim = (256,1,1) 

GPGPU-Sim PTX: cudaLaunch for 0x0x405b10 (mode=performance simulation) on stream 0
GPGPU-Sim PTX: pushing kernel '_Z14reorder_kerneliPjP20ReconstructionSample17sampleArrayStruct' to stream 0, gridDim= (5188,1,1) blockDim = (512,1,1) 
event update
GPGPU-Sim API: cudaEventSynchronize ** waiting for event
GPGPU-Sim API: cudaEventSynchronize ** event detected
event update

GPGPU-Sim PTX: cudaLaunch for 0x0x406f90 (mode=performance simulation) on stream 0
GPGPU-Sim PTX: pushing kernel '_Z14scan_L1_kerneljPjS_' to stream 0, gridDim= (16385,1,1) blockDim = (512,1,1) 

GPGPU-Sim PTX: cudaLaunch for 0x0x406ed0 (mode=performance simulation) on stream 0
GPGPU-Sim PTX: pushing kernel '_Z18scan_inter1_kernelPjj' to stream 0, gridDim= (256,1,1) blockDim = (128,1,1) 

GPGPU-Sim PTX: cudaLaunch for 0x0x406ed0 (mode=performance simulation) on stream 0
GPGPU-Sim PTX: pushing kernel '_Z18scan_inter1_kernelPjj' to stream 0, gridDim= (1,1,1) blockDim = (128,1,1) 

GPGPU-Sim PTX: cudaLaunch for 0x0x406f30 (mode=performance simulation) on stream 0
GPGPU-Sim PTX: pushing kernel '_Z18scan_inter2_kernelPjj' to stream 0, gridDim= (1,1,1) blockDim = (128,1,1) 

GPGPU-Sim PTX: cudaLaunch for 0x0x406f30 (mode=performance simulation) on stream 0
GPGPU-Sim PTX: pushing kernel '_Z18scan_inter2_kernelPjj' to stream 0, gridDim= (256,1,1) blockDim = (128,1,1) 

GPGPU-Sim PTX: cudaLaunch for 0x0x407010 (mode=performance simulation) on stream 0
GPGPU-Sim PTX: pushing kernel '_Z10uniformAddjPjS_' to stream 0, gridDim= (16385,1,1) blockDim = (512,1,1) 
event update
GPGPU-Sim API: cudaEventSynchronize ** waiting for event
GPGPU-Sim API: cudaEventSynchronize ** event detected
event update

GPGPU-Sim PTX: cudaLaunch for 0x0x405910 (mode=performance simulation) on stream 0
GPGPU-Sim PTX: pushing kernel '_Z12gridding_GPU17sampleArrayStructPjP6float2Pff' to stream 0, gridDim= (32,2048,1) blockDim = (8,4,2) 
event update
GPGPU-Sim API: cudaEventSynchronize ** waiting for event
GPGPU-Sim API: cudaEventSynchronize ** event detected
Cannot open output file!

IO        : 0.211096
Kernel    : 4637.000000
Copy      : 12.318604
Driver    : 4637.026548
Compute   : 3.675980
CPU/Kernel Overlap: 4637.000000
Timer Wall Time: 4656.336914
