

        *** GPGPU-Sim Simulator Version 3.2.2  [build 0] ***


GPGPU-Sim PTX: simulation mode 0 (can change with PTX_SIM_MODE_FUNC environment variable:
               1=functional simulation only, 0=detailed performance simulator)
GPGPU-Sim: Configuration options:

-network_mode                           1 # Interconnection network mode
-inter_config_file   config_fermi_islip.icnt # Interconnection network config file
-gpgpu_ptx_use_cuobjdump                    1 # Use cuobjdump to extract ptx and sass from binaries
-gpgpu_experimental_lib_support                    0 # Try to extract code from cuda libraries [Broken because of unknown cudaGetExportTable]
-gpgpu_ptx_convert_to_ptxplus                    0 # Convert SASS (native ISA) to ptxplus and run ptxplus
-gpgpu_ptx_force_max_capability                   20 # Force maximum compute capability
-gpgpu_ptx_inst_debug_to_file                    0 # Dump executed instructions' debug information to file
-gpgpu_ptx_inst_debug_file       inst_debug.txt # Executed instructions' debug output file
-gpgpu_ptx_inst_debug_thread_uid                    1 # Thread UID for executed instructions' debug output
-gpgpu_simd_model                       1 # 1 = post-dominator
-gpgpu_shader_core_pipeline              1536:32 # shader core pipeline config, i.e., {<nthread>:<warpsize>}
-gpgpu_tex_cache:l1  4:128:24,L:R:m:N:L,F:128:4,128:2 # per-shader L1 texture cache  (READ-ONLY) config  {<nsets>:<bsize>:<assoc>,<rep>:<wr>:<alloc>:<wr_alloc>,<mshr>:<N>:<merge>,<mq>:<rf>}
-gpgpu_const_cache:l1 64:64:2,L:R:f:N:L,A:2:32,4 # per-shader L1 constant memory cache  (READ-ONLY) config  {<nsets>:<bsize>:<assoc>,<rep>:<wr>:<alloc>:<wr_alloc>,<mshr>:<N>:<merge>,<mq>} 
-gpgpu_cache:il1     4:128:4,L:R:f:N:L,A:2:32,4 # shader L1 instruction cache config  {<nsets>:<bsize>:<assoc>,<rep>:<wr>:<alloc>:<wr_alloc>,<mshr>:<N>:<merge>,<mq>} 
-gpgpu_cache:dl1     32:128:4,L:L:m:N:H,A:32:8,8 # per-shader L1 data cache config  {<nsets>:<bsize>:<assoc>,<rep>:<wr>:<alloc>:<wr_alloc>,<mshr>:<N>:<merge>,<mq> | none}
-gpgpu_cache:dl1PrefL1                 none # per-shader L1 data cache config  {<nsets>:<bsize>:<assoc>,<rep>:<wr>:<alloc>:<wr_alloc>,<mshr>:<N>:<merge>,<mq> | none}
-gpgpu_cache:dl1PreShared                 none # per-shader L1 data cache config  {<nsets>:<bsize>:<assoc>,<rep>:<wr>:<alloc>:<wr_alloc>,<mshr>:<N>:<merge>,<mq> | none}
-gmem_skip_L1D                          0 # global memory access skip L1D cache (implements -Xptxas -dlcm=cg, default=no skip)
-gpgpu_perfect_mem                      0 # enable perfect memory mode (no cache miss)
-n_regfile_gating_group                    4 # group of lanes that should be read/written together)
-gpgpu_clock_gated_reg_file                    0 # enable clock gated reg file for power calculations
-gpgpu_clock_gated_lanes                    0 # enable clock gated lanes for power calculations
-gpgpu_shader_registers                32768 # Number of registers per shader core. Limits number of concurrent CTAs. (default 8192)
-gpgpu_shader_cta                       8 # Maximum number of concurrent CTAs in shader (default 8)
-gpgpu_num_cta_barriers                   16 # Maximum number of named barriers per CTA (default 16)
-gpgpu_n_clusters                      15 # number of processing clusters
-gpgpu_n_cores_per_cluster                    1 # number of simd cores per cluster
-gpgpu_n_cluster_ejection_buffer_size                    8 # number of packets in ejection buffer
-gpgpu_n_ldst_response_buffer_size                    2 # number of response packets in ld/st unit ejection buffer
-gpgpu_shmem_size                   16384 # Size of shared memory per shader core (default 16kB)
-gpgpu_shmem_size                   49152 # Size of shared memory per shader core (default 16kB)
-gpgpu_shmem_size_PrefL1                16384 # Size of shared memory per shader core (default 16kB)
-gpgpu_shmem_size_PrefShared                16384 # Size of shared memory per shader core (default 16kB)
-gpgpu_shmem_num_banks                   32 # Number of banks in the shared memory in each shader core (default 16)
-gpgpu_shmem_limited_broadcast                    0 # Limit shared memory to do one broadcast per cycle (default on)
-gpgpu_shmem_warp_parts                    1 # Number of portions a warp is divided into for shared memory bank conflict check 
-gpgpu_warpdistro_shader                   -1 # Specify which shader core to collect the warp size distribution from
-gpgpu_warp_issue_shader                    0 # Specify which shader core to collect the warp issue distribution from
-gpgpu_local_mem_map                    1 # Mapping from local memory space address to simulated GPU physical address space (default = enabled)
-gpgpu_num_reg_banks                   16 # Number of register banks (default = 8)
-gpgpu_reg_bank_use_warp_id                    0 # Use warp ID in mapping registers to banks (default = off)
-gpgpu_operand_collector_num_units_sp                    6 # number of collector units (default = 4)
-gpgpu_operand_collector_num_units_sfu                    8 # number of collector units (default = 4)
-gpgpu_operand_collector_num_units_mem                    2 # number of collector units (default = 2)
-gpgpu_operand_collector_num_units_gen                    0 # number of collector units (default = 0)
-gpgpu_operand_collector_num_in_ports_sp                    2 # number of collector unit in ports (default = 1)
-gpgpu_operand_collector_num_in_ports_sfu                    1 # number of collector unit in ports (default = 1)
-gpgpu_operand_collector_num_in_ports_mem                    1 # number of collector unit in ports (default = 1)
-gpgpu_operand_collector_num_in_ports_gen                    0 # number of collector unit in ports (default = 0)
-gpgpu_operand_collector_num_out_ports_sp                    2 # number of collector unit in ports (default = 1)
-gpgpu_operand_collector_num_out_ports_sfu                    1 # number of collector unit in ports (default = 1)
-gpgpu_operand_collector_num_out_ports_mem                    1 # number of collector unit in ports (default = 1)
-gpgpu_operand_collector_num_out_ports_gen                    0 # number of collector unit in ports (default = 0)
-gpgpu_coalesce_arch                   13 # Coalescing arch (default = 13, anything else is off for now)
-gpgpu_num_sched_per_core                    2 # Number of warp schedulers per core
-gpgpu_max_insn_issue_per_warp                    1 # Max number of instructions that can be issued per warp in one cycle by scheduler
-gpgpu_simt_core_sim_order                    1 # Select the simulation order of cores in a cluster (0=Fix, 1=Round-Robin)
-gpgpu_pipeline_widths        2,1,1,2,1,1,2 # Pipeline widths ID_OC_SP,ID_OC_SFU,ID_OC_MEM,OC_EX_SP,OC_EX_SFU,OC_EX_MEM,EX_WB
-gpgpu_num_sp_units                     2 # Number of SP units (default=1)
-gpgpu_num_sfu_units                    1 # Number of SF units (default=1)
-gpgpu_num_mem_units                    1 # Number if ldst units (default=1) WARNING: not hooked up to anything
-gpgpu_scheduler                      lrr # Scheduler configuration: < lrr | gto | two_level_active > If two_level_active:<num_active_warps>:<inner_prioritization>:<outer_prioritization>For complete list of prioritization values see shader.h enum scheduler_prioritization_typeDefault: gto
-gpgpu_dram_scheduler                    1 # 0 = fifo, 1 = FR-FCFS (defaul)
-gpgpu_dram_partition_queues              8:8:8:8 # i2$:$2d:d2$:$2i
-l2_ideal                               0 # Use a ideal L2 cache that always hit
-gpgpu_cache:dl2     64:128:8,L:B:m:W:L,A:32:4,4:0,32 # unified banked L2 data cache config  {<nsets>:<bsize>:<assoc>,<rep>:<wr>:<alloc>:<wr_alloc>,<mshr>:<N>:<merge>,<mq>}
-gpgpu_cache:dl2_texture_only                    0 # L2 cache used for texture only
-gpgpu_n_mem                            6 # number of memory modules (e.g. memory controllers) in gpu
-gpgpu_n_sub_partition_per_mchannel                    2 # number of memory subpartition in each memory module
-gpgpu_n_mem_per_ctrlr                    2 # number of memory chips per memory controller
-gpgpu_memlatency_stat                   14 # track and display latency statistics 0x2 enables MC, 0x4 enables queue logs
-gpgpu_frfcfs_dram_sched_queue_size                   16 # 0 = unlimited (default); # entries per chip
-gpgpu_dram_return_queue_size                  116 # 0 = unlimited (default); # entries per chip
-gpgpu_dram_buswidth                    4 # default = 4 bytes (8 bytes per cycle at DDR)
-gpgpu_dram_burst_length                    8 # Burst length of each DRAM request (default = 4 data bus cycle)
-dram_data_command_freq_ratio                    4 # Frequency ratio between DRAM data bus and command bus (default = 2 times, i.e. DDR)
-gpgpu_dram_timing_opt nbk=16:CCD=2:RRD=6:RCD=12:RAS=28:RP=12:RC=40: CL=12:WL=4:CDLR=5:WR=12:nbkgrp=4:CCDL=3:RTPL=2 # DRAM timing parameters = {nbk:tCCD:tRRD:tRCD:tRAS:tRP:tRC:CL:WL:tCDLR:tWR:nbkgrp:tCCDL:tRTPL}
-rop_latency                          120 # ROP queue latency (default 85)
-dram_latency                         100 # DRAM latency (default 30)
-gpgpu_mem_addr_mapping dramid@8;00000000.00000000.00000000.00000000.0000RRRR.RRRRRRRR.BBBCCCCB.CCSSSSSS # mapping memory address to dram model {dramid@<start bit>;<memory address map>}
-gpgpu_mem_addr_test                    0 # run sweep test to check address mapping for aliased address
-gpgpu_mem_address_mask                    1 # 0 = old addressing mask, 1 = new addressing mask, 2 = new add. mask + flipped bank sel and chip sel bits
-gpuwattch_xml_file  gpuwattch_gtx480.xml # GPUWattch XML file
-power_simulation_enabled                    0 # Turn on power simulator (1=On, 0=Off)
-power_per_cycle_dump                    0 # Dump detailed power output each cycle
-power_trace_enabled                    0 # produce a file for the power trace (1=On, 0=Off)
-power_trace_zlevel                     6 # Compression level of the power trace output log (0=no comp, 9=highest)
-steady_power_levels_enabled                    0 # produce a file for the steady power levels (1=On, 0=Off)
-steady_state_definition                  8:4 # allowed deviation:number of samples
-gpgpu_max_cycle                        0 # terminates gpu simulation early (0 = no limit)
-gpgpu_max_insn                         0 # terminates gpu simulation early (0 = no limit)
-gpgpu_max_cta                          0 # terminates gpu simulation early (0 = no limit)
-gpgpu_runtime_stat             500000000 # display runtime statistics such as dram utilization {<freq>:<flag>}
-liveness_message_freq                    1 # Minimum number of seconds between simulation liveness messages (0 = always print)
-gpgpu_flush_l1_cache                    0 # Flush L1 cache at the end of each kernel call
-gpgpu_flush_l2_cache                    0 # Flush L2 cache at the end of each kernel call
-gpgpu_deadlock_detect                    1 # Stop the simulation at deadlock (1=on (default), 0=off)
-gpgpu_ptx_instruction_classification                    0 # if enabled will classify ptx instruction types per kernel (Max 255 kernels now)
-gpgpu_ptx_sim_mode                     0 # Select between Performance (default) or Functional simulation (1)
-gpgpu_clock_domains 730.0:730.0:730.0:950.0 # Clock Domain Frequencies in MhZ {<Core Clock>:<ICNT Clock>:<L2 Clock>:<DRAM Clock>}
-gpgpu_max_concurrent_kernel                    8 # maximum kernels that can run concurrently on GPU
-gpgpu_cflog_interval                    0 # Interval between each snapshot in control flow logger
-visualizer_enabled                     0 # Turn on visualizer output (1=On, 0=Off)
-visualizer_outputfile                 NULL # Specifies the output log file for visualizer
-visualizer_zlevel                      6 # Compression level of the visualizer output log (0=no comp, 9=highest)
-trace_enabled                          0 # Turn on traces
-trace_components                    none # comma seperated list of traces to enable. Complete list found in trace_streams.tup. Default none
-trace_sampling_core                    0 # The core which is printed using CORE_DPRINTF. Default 0
-trace_sampling_memory_partition                   -1 # The memory partition which is printed using MEMPART_DPRINTF. Default -1 (i.e. all)
-enable_ptx_file_line_stats                    0 # Turn on PTX source line statistic profiling. (1 = On)
-ptx_line_stats_filename gpgpu_inst_stats.txt # Output file for PTX source line statistics.
-save_embedded_ptx                      0 # saves ptx files embedded in binary as <n>.ptx
-keep                                   0 # keep intermediate files created by GPGPU-Sim when interfacing with external programs
-gpgpu_ptx_save_converted_ptxplus                    0 # Saved converted ptxplus to a file
-ptx_opcode_latency_int         4,13,4,5,145 # Opcode latencies for integers <ADD,MAX,MUL,MAD,DIV>Default 1,1,19,25,145
-ptx_opcode_latency_fp          4,13,4,5,39 # Opcode latencies for single precision floating points <ADD,MAX,MUL,MAD,DIV>Default 1,1,1,1,30
-ptx_opcode_latency_dp         8,19,8,8,330 # Opcode latencies for double precision floating points <ADD,MAX,MUL,MAD,DIV>Default 8,8,8,8,335
-ptx_opcode_initiation_int            1,2,2,1,8 # Opcode initiation intervals for integers <ADD,MAX,MUL,MAD,DIV>Default 1,1,4,4,32
-ptx_opcode_initiation_fp            1,2,1,1,4 # Opcode initiation intervals for single precision floating points <ADD,MAX,MUL,MAD,DIV>Default 1,1,1,1,5
-ptx_opcode_initiation_dp         8,16,8,8,130 # Opcode initiation intervals for double precision floating points <ADD,MAX,MUL,MAD,DIV>Default 8,8,8,8,130
DRAM Timing Options:
nbk                                    16 # number of banks
CCD                                     2 # column to column delay
RRD                                     6 # minimal delay between activation of rows in different banks
RCD                                    12 # row to column delay
RAS                                    28 # time needed to activate row
RP                                     12 # time needed to precharge (deactivate) row
RC                                     40 # row cycle time
CDLR                                    5 # switching from write to read (changes tWTR)
WR                                     12 # last data-in to row precharge
CL                                     12 # CAS latency
WL                                      4 # Write latency
nbkgrp                                  4 # number of bank groups
CCDL                                    3 # column to column delay between accesses to different bank groups
RTPL                                    2 # read to precharge delay between accesses to different bank groups
Total number of memory sub partition = 12
addr_dec_mask[CHIP]  = 0000000000000000 	high:64 low:0
addr_dec_mask[BK]    = 000000000000e100 	high:16 low:8
addr_dec_mask[ROW]   = 000000000fff0000 	high:28 low:16
addr_dec_mask[COL]   = 0000000000001eff 	high:13 low:0
addr_dec_mask[BURST] = 000000000000003f 	high:6 low:0
sub_partition_id_mask = 0000000000000100
GPGPU-Sim uArch: clock freqs: 730000000.000000:730000000.000000:730000000.000000:950000000.000000
GPGPU-Sim uArch: clock periods: 0.00000000136986301370:0.00000000136986301370:0.00000000136986301370:0.00000000105263157895
*** Initializing Memory Statistics ***
GPGPU-Sim uArch: interconnect node map (shaderID+MemID to icntID)
GPGPU-Sim uArch: Memory nodes ID start from index: 15
GPGPU-Sim uArch:    0   1   2   3   4
GPGPU-Sim uArch:    5   6   7   8   9
GPGPU-Sim uArch:   10  11  12  13  14
GPGPU-Sim uArch:   15  16  17  18  19
GPGPU-Sim uArch:   20  21  22  23  24
GPGPU-Sim uArch:   25  26
GPGPU-Sim uArch: interconnect node reverse map (icntID to shaderID+MemID)
GPGPU-Sim uArch: Memory nodes start from ID: 15
GPGPU-Sim uArch:    0   1   2   3   4
GPGPU-Sim uArch:    5   6   7   8   9
GPGPU-Sim uArch:   10  11  12  13  14
GPGPU-Sim uArch:   15  16  17  18  19
GPGPU-Sim uArch:   20  21  22  23  24
GPGPU-Sim uArch:   25  26
dc41885788db102298b831a6442dee31  /home/z/Workspace/model_gpu_cache/build/sad_sim
GPGPU-Sim uArch: performance model initialization complete.
GPGPU-Sim PTX: __cudaRegisterFatBinary, fat_cubin_handle = 1, filename=main.cu
self exe links to: /home/z/Workspace/model_gpu_cache/build/sad_sim
Running md5sum using "md5sum /home/z/Workspace/model_gpu_cache/build/sad_sim "
Running cuobjdump using "$CUDA_INSTALL_PATH/bin/cuobjdump -ptx -elf -sass /home/z/Workspace/model_gpu_cache/build/sad_sim > _cuobjdump_complete_output_0XFRC0"
Parsing file _cuobjdump_complete_output_0XFRC0
######### cuobjdump parser ########
## Adding new section ELF
Adding arch: sm_20
Adding identifier: main.cu
## Adding new section PTX
Adding ptx filename: _cuobjdump_1.ptx
Adding arch: sm_20
Adding identifier: main.cu
## Adding new section ELF
Adding arch: sm_20
Adding identifier: sad4.cu
## Adding new section PTX
Adding ptx filename: _cuobjdump_2.ptx
Adding arch: sm_20
Adding identifier: sad4.cu
## Adding new section ELF
Adding arch: sm_20
Adding identifier: largerBlocks.cu
## Adding new section PTX
Adding ptx filename: _cuobjdump_3.ptx
Adding arch: sm_20
Adding identifier: largerBlocks.cu
Done parsing!!!
GPGPU-Sim PTX: __cudaRegisterFatBinary, fat_cubin_handle = 2, filename=sad4.cu
GPGPU-Sim PTX: __cudaRegisterFunction _Z11mb_sad_calcPtS_ii : hostFun 0x0x4041b0, fat_cubin_handle = 2
GPGPU-Sim PTX: allocating shared region for "sad_loc" from 0x0 to 0x0 (shared memory space)
GPGPU-Sim PTX: allocating shared region for "sad_loc_8b" from 0x0 to 0x0 (shared memory space)
GPGPU-Sim PTX: allocating shared region for "frame_loc" from 0x0 to 0x20 (shared memory space)
GPGPU-Sim PTX: allocating global region for "ref" from 0x100 to 0x104 (global memory space)
GPGPU-Sim PTX: instruction assembly for function '_Z11mb_sad_calcPtS_ii'...   done.
GPGPU-Sim PTX: finding reconvergence points for '_Z11mb_sad_calcPtS_ii'...
GPGPU-Sim PTX: Finding dominators for '_Z11mb_sad_calcPtS_ii'...
GPGPU-Sim PTX: Finding immediate dominators for '_Z11mb_sad_calcPtS_ii'...
GPGPU-Sim PTX: Finding postdominators for '_Z11mb_sad_calcPtS_ii'...
GPGPU-Sim PTX: Finding immediate postdominators for '_Z11mb_sad_calcPtS_ii'...
GPGPU-Sim PTX: pre-decoding instructions for '_Z11mb_sad_calcPtS_ii'...
GPGPU-Sim PTX: reconvergence points for _Z11mb_sad_calcPtS_ii...
GPGPU-Sim PTX:  1 (potential) branch divergence @  PC=0x040 (_2.ptx:76) @%p1 bra $Lt_0_9730;
GPGPU-Sim PTX:    immediate post dominator      @  PC=0x1f8 (_2.ptx:136) bar.sync 0;
GPGPU-Sim PTX:  2 (potential) branch divergence @  PC=0x0e8 (_2.ptx:97) @%p2 bra $Lt_0_9986;
GPGPU-Sim PTX:    immediate post dominator      @  PC=0x1c0 (_2.ptx:126) mov.u64 %rd1, frame_loc;
GPGPU-Sim PTX:  3 (potential) branch divergence @  PC=0x1c8 (_2.ptx:127) bra.uni $Lt_0_9474;
GPGPU-Sim PTX:    immediate post dominator      @  PC=0x1f8 (_2.ptx:136) bar.sync 0;
GPGPU-Sim PTX:  4 (potential) branch divergence @  PC=0x288 (_2.ptx:154) @%p3 bra $Lt_0_10498;
GPGPU-Sim PTX:    immediate post dominator      @  PC=0x870 (_2.ptx:377) bar.sync 0;
GPGPU-Sim PTX:  5 (potential) branch divergence @  PC=0x378 (_2.ptx:186) @%p6 bra $Lt_0_11010;
GPGPU-Sim PTX:    immediate post dominator      @  PC=0x870 (_2.ptx:377) bar.sync 0;
GPGPU-Sim PTX:  6 (potential) branch divergence @  PC=0x7f0 (_2.ptx:351) @%p8 bra $Lt_0_12290;
GPGPU-Sim PTX:    immediate post dominator      @  PC=0x7f8 (_2.ptx:353) cvt.u64.u32 %rd13, %r97;
GPGPU-Sim PTX:  7 (potential) branch divergence @  PC=0x840 (_2.ptx:365) @%p9 bra $Lt_0_12802;
GPGPU-Sim PTX:    immediate post dominator      @  PC=0x858 (_2.ptx:371) add.u32 %r97, %r97, 3;
GPGPU-Sim PTX:  8 (potential) branch divergence @  PC=0x868 (_2.ptx:373) @%p10 bra $Lt_0_11522;
GPGPU-Sim PTX:    immediate post dominator      @  PC=0x870 (_2.ptx:377) bar.sync 0;
GPGPU-Sim PTX:  9 (potential) branch divergence @  PC=0x890 (_2.ptx:381) @%p11 bra $Lt_0_13570;
GPGPU-Sim PTX:    immediate post dominator      @  PC=0xa80 (_2.ptx:451) exit;
GPGPU-Sim PTX: 10 (potential) branch divergence @  PC=0x908 (_2.ptx:396) @%p12 bra $Lt_0_14082;
GPGPU-Sim PTX:    immediate post dominator      @  PC=0xa80 (_2.ptx:451) exit;
GPGPU-Sim PTX: 11 (potential) branch divergence @  PC=0x930 (_2.ptx:402) @%p13 bra $Lt_0_14594;
GPGPU-Sim PTX:    immediate post dominator      @  PC=0xa80 (_2.ptx:451) exit;
GPGPU-Sim PTX: 12 (potential) branch divergence @  PC=0xa78 (_2.ptx:446) @%p14 bra $Lt_0_15106;
GPGPU-Sim PTX:    immediate post dominator      @  PC=0xa80 (_2.ptx:451) exit;
GPGPU-Sim PTX: ... end of reconvergence points for _Z11mb_sad_calcPtS_ii
GPGPU-Sim PTX: ... done pre-decoding instructions for '_Z11mb_sad_calcPtS_ii'.
GPGPU-Sim PTX: finished parsing EMBEDDED .ptx file _2.ptx
Adding _cuobjdump_2.ptx with cubin handle 2
GPGPU-Sim PTX: extracting embedded .ptx to temporary file "_ptx_mPpqYx"
Running: cat _ptx_mPpqYx | sed 's/.version 1.5/.version 1.4/' | sed 's/, texmode_independent//' | sed 's/\(\.extern \.const\[1\] .b8 \w\+\)\[\]/\1\[1\]/' | sed 's/const\[.\]/const\[0\]/g' > _ptx2_AyE0j5
GPGPU-Sim PTX: generating ptxinfo using "$CUDA_INSTALL_PATH/bin/ptxas --gpu-name=sm_20 -v _ptx2_AyE0j5 --output-file  /dev/null 2> _ptx_mPpqYxinfo"
GPGPU-Sim PTX: Kernel '_Z11mb_sad_calcPtS_ii' : regs=32, lmem=0, smem=32, cmem=64
GPGPU-Sim PTX: removing ptxinfo using "rm -f _ptx_mPpqYx _ptx2_AyE0j5 _ptx_mPpqYxinfo"
GPGPU-Sim PTX: loading globals with explicit initializers... 
GPGPU-Sim PTX: finished loading globals (0 bytes total).
GPGPU-Sim PTX: loading constants with explicit initializers...  done.
GPGPU-Sim PTX: in __cudaRegisterTexture:
GPGPU-Sim PTX:   int dim = 2
GPGPU-Sim PTX:   int norm = 0
GPGPU-Sim PTX:   int ext = 0
GPGPU-Sim PTX:   Execution warning: Not finished implementing "void __cudaRegisterTexture(void**, const textureReference*, const void**, const char*, int, int, int)"
GPGPU-Sim PTX: __cudaRegisterFatBinary, fat_cubin_handle = 3, filename=largerBlocks.cu
GPGPU-Sim PTX: __cudaRegisterFunction _Z18larger_sad_calc_16Ptii : hostFun 0x0x404400, fat_cubin_handle = 3
GPGPU-Sim PTX: instruction assembly for function '_Z17larger_sad_calc_8Ptii'...   done.
GPGPU-Sim PTX: finding reconvergence points for '_Z17larger_sad_calc_8Ptii'...
GPGPU-Sim PTX: Finding dominators for '_Z17larger_sad_calc_8Ptii'...
GPGPU-Sim PTX: Finding immediate dominators for '_Z17larger_sad_calc_8Ptii'...
GPGPU-Sim PTX: Finding postdominators for '_Z17larger_sad_calc_8Ptii'...
GPGPU-Sim PTX: Finding immediate postdominators for '_Z17larger_sad_calc_8Ptii'...
GPGPU-Sim PTX: pre-decoding instructions for '_Z17larger_sad_calc_8Ptii'...
GPGPU-Sim PTX: reconvergence points for _Z17larger_sad_calc_8Ptii...
GPGPU-Sim PTX:  1 (potential) branch divergence @  PC=0xaa8 (_3.ptx:67) @%p1 bra $Lt_0_2050;
GPGPU-Sim PTX:    immediate post dominator      @  PC=0xbd0 (_3.ptx:108) cvt.s32.u32 %r27, %tid.x;
GPGPU-Sim PTX:  2 (potential) branch divergence @  PC=0xbf0 (_3.ptx:112) @%p2 bra $Lt_0_2562;
GPGPU-Sim PTX:    immediate post dominator      @  PC=0xe48 (_3.ptx:200) exit;
GPGPU-Sim PTX:  3 (potential) branch divergence @  PC=0xe40 (_3.ptx:197) @%p3 bra $Lt_0_3074;
GPGPU-Sim PTX:    immediate post dominator      @  PC=0xe48 (_3.ptx:200) exit;
GPGPU-Sim PTX: ... end of reconvergence points for _Z17larger_sad_calc_8Ptii
GPGPU-Sim PTX: ... done pre-decoding instructions for '_Z17larger_sad_calc_8Ptii'.
GPGPU-Sim PTX: instruction assembly for function '_Z18larger_sad_calc_16Ptii'...   done.
GPGPU-Sim PTX: finding reconvergence points for '_Z18larger_sad_calc_16Ptii'...
GPGPU-Sim PTX: Finding dominators for '_Z18larger_sad_calc_16Ptii'...
GPGPU-Sim PTX: Finding immediate dominators for '_Z18larger_sad_calc_16Ptii'...
GPGPU-Sim PTX: Finding postdominators for '_Z18larger_sad_calc_16Ptii'...
GPGPU-Sim PTX: Finding immediate postdominators for '_Z18larger_sad_calc_16Ptii'...
GPGPU-Sim PTX: pre-decoding instructions for '_Z18larger_sad_calc_16Ptii'...
GPGPU-Sim PTX: reconvergence points for _Z18larger_sad_calc_16Ptii...
GPGPU-Sim PTX:  1 (potential) branch divergence @  PC=0xe70 (_3.ptx:219) @%p1 bra $Lt_1_1282;
GPGPU-Sim PTX:    immediate post dominator      @  PC=0x1090 (_3.ptx:300) exit;
GPGPU-Sim PTX:  2 (potential) branch divergence @  PC=0x1088 (_3.ptx:297) @%p2 bra $Lt_1_1794;
GPGPU-Sim PTX:    immediate post dominator      @  PC=0x1090 (_3.ptx:300) exit;
GPGPU-Sim PTX: ... end of reconvergence points for _Z18larger_sad_calc_16Ptii
GPGPU-Sim PTX: ... done pre-decoding instructions for '_Z18larger_sad_calc_16Ptii'.
GPGPU-Sim PTX: finished parsing EMBEDDED .ptx file _3.ptx
Adding _cuobjdump_3.ptx with cubin handle 3
GPGPU-Sim PTX: extracting embedded .ptx to temporary file "_ptx_sXUFLC"
Running: cat _ptx_sXUFLC | sed 's/.version 1.5/.version 1.4/' | sed 's/, texmode_independent//' | sed 's/\(\.extern \.const\[1\] .b8 \w\+\)\[\]/\1\[1\]/' | sed 's/const\[.\]/const\[0\]/g' > _ptx2_GFPmda
GPGPU-Sim PTX: generating ptxinfo using "$CUDA_INSTALL_PATH/bin/ptxas --gpu-name=sm_20 -v _ptx2_GFPmda --output-file  /dev/null 2> _ptx_sXUFLCinfo"
GPGPU-Sim PTX: Kernel '_Z18larger_sad_calc_16Ptii' : regs=16, lmem=0, smem=0, cmem=48
GPGPU-Sim PTX: Kernel '_Z17larger_sad_calc_8Ptii' : regs=16, lmem=0, smem=0, cmem=48
GPGPU-Sim PTX: removing ptxinfo using "rm -f _ptx_sXUFLC _ptx2_GFPmda _ptx_sXUFLCinfo"
GPGPU-Sim PTX: loading globals with explicit initializers... 
GPGPU-Sim PTX: finished loading globals (0 bytes total).
GPGPU-Sim PTX: loading constants with explicit initializers...  done.
GPGPU-Sim PTX: __cudaRegisterFunction _Z17larger_sad_calc_8Ptii : hostFun 0x0x404480, fat_cubin_handle = 3
GPGPU-Sim PTX: cudaMallocArray: devPtr32 = -2147432960
GPGPU-Sim PTX: in cudaBindTextureToArray: 0x60e220 0x1cd2aa0
GPGPU-Sim PTX:   devPtr32 = 8000c600
GPGPU-Sim PTX:   Name corresponding to textureReference: ref
GPGPU-Sim PTX:   Texture Normalized? = 0
GPGPU-Sim PTX:   texel size = 2
GPGPU-Sim PTX:   texture cache linesize = 128
GPGPU-Sim PTX:   Tx = 16; Ty = 4, Tx_numbits = 4, Ty_numbits = 2
GPGPU-Sim PTX:   Texel size = 2 bytes; texel_size_numbits = 1
GPGPU-Sim PTX:   Binding texture to array starting at devPtr32 = 0x8000c600
GPGPU-Sim PTX:   Texel size = 2 bytes
event update

GPGPU-Sim PTX: cudaLaunch for 0x0x4041b0 (mode=performance simulation) on stream 0
GPGPU-Sim PTX: pushing kernel '_Z11mb_sad_calcPtS_ii' to stream 0, gridDim= (44,36,1) blockDim = (61,1,1) 
####  CUstream_st::push: Start pushing kernel: mb_sad_calc  ####
kernel '_Z11mb_sad_calcPtS_ii' transfer to GPU hardware scheduler
GPGPU-Sim uArch: Shader 1 bind to kernel 1 '_Z11mb_sad_calcPtS_ii'
GPGPU-Sim uArch: CTA/core = 8, limited by: cta_limit
GPGPU-Sim uArch: core:  1, cta: 0 initialized @(1,0)
GPGPU-Sim uArch: Shader 2 bind to kernel 1 '_Z11mb_sad_calcPtS_ii'
GPGPU-Sim uArch: core:  2, cta: 0 initialized @(1,0)
GPGPU-Sim uArch: Shader 3 bind to kernel 1 '_Z11mb_sad_calcPtS_ii'
GPGPU-Sim uArch: core:  3, cta: 0 initialized @(1,0)
GPGPU-Sim uArch: Shader 4 bind to kernel 1 '_Z11mb_sad_calcPtS_ii'
GPGPU-Sim uArch: core:  4, cta: 0 initialized @(1,0)
GPGPU-Sim uArch: Shader 5 bind to kernel 1 '_Z11mb_sad_calcPtS_ii'
GPGPU-Sim uArch: core:  5, cta: 0 initialized @(1,0)
GPGPU-Sim uArch: Shader 6 bind to kernel 1 '_Z11mb_sad_calcPtS_ii'
GPGPU-Sim uArch: core:  6, cta: 0 initialized @(1,0)
GPGPU-Sim uArch: Shader 7 bind to kernel 1 '_Z11mb_sad_calcPtS_ii'
GPGPU-Sim uArch: core:  7, cta: 0 initialized @(1,0)
GPGPU-Sim uArch: Shader 8 bind to kernel 1 '_Z11mb_sad_calcPtS_ii'
GPGPU-Sim uArch: core:  8, cta: 0 initialized @(1,0)
GPGPU-Sim uArch: Shader 9 bind to kernel 1 '_Z11mb_sad_calcPtS_ii'
GPGPU-Sim uArch: core:  9, cta: 0 initialized @(1,0)
GPGPU-Sim uArch: Shader 10 bind to kernel 1 '_Z11mb_sad_calcPtS_ii'
GPGPU-Sim uArch: core: 10, cta: 0 initialized @(1,0)
GPGPU-Sim uArch: Shader 11 bind to kernel 1 '_Z11mb_sad_calcPtS_ii'
GPGPU-Sim uArch: core: 11, cta: 0 initialized @(1,0)
GPGPU-Sim uArch: Shader 12 bind to kernel 1 '_Z11mb_sad_calcPtS_ii'
GPGPU-Sim uArch: core: 12, cta: 0 initialized @(1,0)
GPGPU-Sim uArch: Shader 13 bind to kernel 1 '_Z11mb_sad_calcPtS_ii'
GPGPU-Sim uArch: core: 13, cta: 0 initialized @(1,0)
GPGPU-Sim uArch: Shader 14 bind to kernel 1 '_Z11mb_sad_calcPtS_ii'
GPGPU-Sim uArch: core: 14, cta: 0 initialized @(1,0)
GPGPU-Sim uArch: Shader 0 bind to kernel 1 '_Z11mb_sad_calcPtS_ii'
GPGPU-Sim uArch: core:  0, cta: 0 initialized @(1,0)
GPGPU-Sim uArch: core:  1, cta: 1 initialized @(2,0)
GPGPU-Sim uArch: core:  2, cta: 1 initialized @(2,0)
GPGPU-Sim uArch: core:  3, cta: 1 initialized @(2,0)
GPGPU-Sim uArch: core:  4, cta: 1 initialized @(2,0)
GPGPU-Sim uArch: core:  5, cta: 1 initialized @(2,0)
GPGPU-Sim uArch: core:  6, cta: 1 initialized @(2,0)
GPGPU-Sim uArch: core:  7, cta: 1 initialized @(2,0)
GPGPU-Sim uArch: core:  8, cta: 1 initialized @(2,0)
GPGPU-Sim uArch: core:  9, cta: 1 initialized @(2,0)
GPGPU-Sim uArch: core: 10, cta: 1 initialized @(2,0)
GPGPU-Sim uArch: core: 11, cta: 1 initialized @(2,0)
GPGPU-Sim uArch: core: 12, cta: 1 initialized @(2,0)
GPGPU-Sim uArch: core: 13, cta: 1 initialized @(2,0)
GPGPU-Sim uArch: core: 14, cta: 1 initialized @(2,0)
GPGPU-Sim uArch: core:  0, cta: 1 initialized @(2,0)
GPGPU-Sim uArch: core:  1, cta: 2 initialized @(3,0)
GPGPU-Sim uArch: core:  2, cta: 2 initialized @(3,0)
GPGPU-Sim uArch: core:  3, cta: 2 initialized @(3,0)
GPGPU-Sim uArch: core:  4, cta: 2 initialized @(3,0)
GPGPU-Sim uArch: core:  5, cta: 2 initialized @(3,0)
GPGPU-Sim uArch: core:  6, cta: 2 initialized @(3,0)
GPGPU-Sim uArch: core:  7, cta: 2 initialized @(3,0)
GPGPU-Sim uArch: core:  8, cta: 2 initialized @(3,0)
GPGPU-Sim uArch: core:  9, cta: 2 initialized @(3,0)
GPGPU-Sim uArch: core: 10, cta: 2 initialized @(3,0)
GPGPU-Sim uArch: core: 11, cta: 2 initialized @(3,0)
GPGPU-Sim uArch: core: 12, cta: 2 initialized @(3,0)
GPGPU-Sim uArch: core: 13, cta: 2 initialized @(3,0)
GPGPU-Sim uArch: core: 14, cta: 2 initialized @(3,0)
GPGPU-Sim uArch: core:  0, cta: 2 initialized @(3,0)
GPGPU-Sim uArch: core:  1, cta: 3 initialized @(4,0)
GPGPU-Sim uArch: core:  2, cta: 3 initialized @(4,0)
GPGPU-Sim uArch: core:  3, cta: 3 initialized @(4,0)
GPGPU-Sim uArch: core:  4, cta: 3 initialized @(4,0)
GPGPU-Sim uArch: core:  5, cta: 3 initialized @(4,0)
GPGPU-Sim uArch: core:  6, cta: 3 initialized @(4,0)
GPGPU-Sim uArch: core:  7, cta: 3 initialized @(4,0)
GPGPU-Sim uArch: core:  8, cta: 3 initialized @(4,0)
GPGPU-Sim uArch: core:  9, cta: 3 initialized @(4,0)
GPGPU-Sim uArch: core: 10, cta: 3 initialized @(4,0)
GPGPU-Sim uArch: core: 11, cta: 3 initialized @(4,0)
GPGPU-Sim uArch: core: 12, cta: 3 initialized @(4,0)
GPGPU-Sim uArch: core: 13, cta: 3 initialized @(4,0)
GPGPU-Sim uArch: core: 14, cta: 3 initialized @(4,0)
GPGPU-Sim uArch: core:  0, cta: 3 initialized @(4,0)
GPGPU-Sim uArch: core:  1, cta: 4 initialized @(5,0)
GPGPU-Sim uArch: core:  2, cta: 4 initialized @(5,0)
GPGPU-Sim uArch: core:  3, cta: 4 initialized @(5,0)
GPGPU-Sim uArch: core:  4, cta: 4 initialized @(5,0)
GPGPU-Sim uArch: core:  5, cta: 4 initialized @(5,0)
GPGPU-Sim uArch: core:  6, cta: 4 initialized @(5,0)
GPGPU-Sim uArch: core:  7, cta: 4 initialized @(5,0)
GPGPU-Sim uArch: core:  8, cta: 4 initialized @(5,0)
GPGPU-Sim uArch: core:  9, cta: 4 initialized @(5,0)
GPGPU-Sim uArch: core: 10, cta: 4 initialized @(5,0)
GPGPU-Sim uArch: core: 11, cta: 4 initialized @(5,0)
GPGPU-Sim uArch: core: 12, cta: 4 initialized @(5,0)
GPGPU-Sim uArch: core: 13, cta: 4 initialized @(5,0)
GPGPU-Sim uArch: core: 14, cta: 4 initialized @(5,0)
GPGPU-Sim uArch: core:  0, cta: 4 initialized @(5,0)
GPGPU-Sim uArch: core:  1, cta: 5 initialized @(6,0)
GPGPU-Sim uArch: core:  2, cta: 5 initialized @(6,0)
GPGPU-Sim uArch: core:  3, cta: 5 initialized @(6,0)
GPGPU-Sim uArch: core:  4, cta: 5 initialized @(6,0)
GPGPU-Sim uArch: core:  5, cta: 5 initialized @(6,0)
GPGPU-Sim uArch: core:  6, cta: 5 initialized @(6,0)
GPGPU-Sim uArch: core:  7, cta: 5 initialized @(6,0)
GPGPU-Sim uArch: core:  8, cta: 5 initialized @(6,0)
GPGPU-Sim uArch: core:  9, cta: 5 initialized @(6,0)
GPGPU-Sim uArch: core: 10, cta: 5 initialized @(6,0)
GPGPU-Sim uArch: core: 11, cta: 5 initialized @(6,0)
GPGPU-Sim uArch: core: 12, cta: 5 initialized @(6,0)
GPGPU-Sim uArch: core: 13, cta: 5 initialized @(6,0)
GPGPU-Sim uArch: core: 14, cta: 5 initialized @(6,0)
GPGPU-Sim uArch: core:  0, cta: 5 initialized @(6,0)
GPGPU-Sim uArch: core:  1, cta: 6 initialized @(7,0)
GPGPU-Sim uArch: core:  2, cta: 6 initialized @(7,0)
GPGPU-Sim uArch: core:  3, cta: 6 initialized @(7,0)
GPGPU-Sim uArch: core:  4, cta: 6 initialized @(7,0)
GPGPU-Sim uArch: core:  5, cta: 6 initialized @(7,0)
GPGPU-Sim uArch: core:  6, cta: 6 initialized @(7,0)
GPGPU-Sim uArch: core:  7, cta: 6 initialized @(7,0)
GPGPU-Sim uArch: core:  8, cta: 6 initialized @(7,0)
GPGPU-Sim uArch: core:  9, cta: 6 initialized @(7,0)
GPGPU-Sim uArch: core: 10, cta: 6 initialized @(7,0)
GPGPU-Sim uArch: core: 11, cta: 6 initialized @(7,0)
GPGPU-Sim uArch: core: 12, cta: 6 initialized @(7,0)
GPGPU-Sim uArch: core: 13, cta: 6 initialized @(7,0)
GPGPU-Sim uArch: core: 14, cta: 6 initialized @(7,0)
GPGPU-Sim uArch: core:  0, cta: 6 initialized @(7,0)
GPGPU-Sim uArch: core:  1, cta: 7 initialized @(8,0)
GPGPU-Sim uArch: core:  2, cta: 7 initialized @(8,0)
GPGPU-Sim uArch: core:  3, cta: 7 initialized @(8,0)
GPGPU-Sim uArch: core:  4, cta: 7 initialized @(8,0)
GPGPU-Sim uArch: core:  5, cta: 7 initialized @(8,0)
GPGPU-Sim uArch: core:  6, cta: 7 initialized @(8,0)
GPGPU-Sim uArch: core:  7, cta: 7 initialized @(8,0)
GPGPU-Sim uArch: core:  8, cta: 7 initialized @(8,0)
GPGPU-Sim uArch: core:  9, cta: 7 initialized @(8,0)
GPGPU-Sim uArch: core: 10, cta: 7 initialized @(8,0)
GPGPU-Sim uArch: core: 11, cta: 7 initialized @(8,0)
GPGPU-Sim uArch: core: 12, cta: 7 initialized @(8,0)
GPGPU-Sim uArch: core: 13, cta: 7 initialized @(8,0)
GPGPU-Sim uArch: core: 14, cta: 7 initialized @(8,0)
GPGPU-Sim uArch: core:  0, cta: 7 initialized @(8,0)
GPGPU-Sim uArch: Shader 1 finished CTA #7 (38635,0), 7 CTAs running
GPGPU-Sim uArch: core:  1, cta: 7 initialized @(38636,0)
GPGPU-Sim uArch: Shader 3 finished CTA #0 (38683,0), 7 CTAs running
GPGPU-Sim uArch: core:  3, cta: 0 initialized @(38684,0)
GPGPU-Sim uArch: Shader 3 finished CTA #2 (38718,0), 7 CTAs running
GPGPU-Sim uArch: core:  3, cta: 2 initialized @(38719,0)
GPGPU-Sim uArch: Shader 11 finished CTA #3 (38724,0), 7 CTAs running
GPGPU-Sim uArch: core: 11, cta: 3 initialized @(38725,0)
GPGPU-Sim uArch: Shader 11 finished CTA #4 (38727,0), 7 CTAs running
GPGPU-Sim uArch: core: 11, cta: 4 initialized @(38728,0)
GPGPU-Sim uArch: Shader 13 finished CTA #2 (38732,0), 7 CTAs running
GPGPU-Sim uArch: core: 13, cta: 2 initialized @(38733,0)
GPGPU-Sim uArch: Shader 11 finished CTA #6 (38793,0), 7 CTAs running
GPGPU-Sim uArch: core: 11, cta: 6 initialized @(38794,0)
GPGPU-Sim uArch: Shader 3 finished CTA #1 (38802,0), 7 CTAs running
GPGPU-Sim uArch: Shader 6 finished CTA #3 (38802,0), 7 CTAs running
GPGPU-Sim uArch: core:  3, cta: 1 initialized @(38803,0)
GPGPU-Sim uArch: core:  6, cta: 3 initialized @(38803,0)
GPGPU-Sim uArch: Shader 2 finished CTA #5 (38803,0), 7 CTAs running
GPGPU-Sim uArch: core:  2, cta: 5 initialized @(38804,0)
GPGPU-Sim uArch: Shader 2 finished CTA #2 (38807,0), 7 CTAs running
GPGPU-Sim uArch: core:  2, cta: 2 initialized @(38808,0)
GPGPU-Sim uArch: Shader 2 finished CTA #0 (38810,0), 7 CTAs running
GPGPU-Sim uArch: core:  2, cta: 0 initialized @(38811,0)
GPGPU-Sim uArch: Shader 2 finished CTA #7 (38821,0), 7 CTAs running
GPGPU-Sim uArch: core:  2, cta: 7 initialized @(38822,0)
GPGPU-Sim uArch: Shader 6 finished CTA #0 (38822,0), 7 CTAs running
GPGPU-Sim uArch: core:  6, cta: 0 initialized @(38823,0)
GPGPU-Sim uArch: Shader 2 finished CTA #1 (38828,0), 7 CTAs running
GPGPU-Sim uArch: core:  2, cta: 1 initialized @(38829,0)
GPGPU-Sim uArch: Shader 2 finished CTA #6 (38870,0), 7 CTAs running
GPGPU-Sim uArch: core:  2, cta: 6 initialized @(38871,0)
GPGPU-Sim uArch: Shader 3 finished CTA #4 (38883,0), 7 CTAs running
GPGPU-Sim uArch: core:  3, cta: 4 initialized @(38884,0)
GPGPU-Sim uArch: Shader 3 finished CTA #6 (38899,0), 7 CTAs running
GPGPU-Sim uArch: core:  3, cta: 6 initialized @(38900,0)
GPGPU-Sim uArch: Shader 11 finished CTA #5 (38900,0), 7 CTAs running
GPGPU-Sim uArch: core: 11, cta: 5 initialized @(38901,0)
GPGPU-Sim uArch: Shader 12 finished CTA #7 (38901,0), 7 CTAs running
GPGPU-Sim uArch: core: 12, cta: 7 initialized @(38902,0)
GPGPU-Sim uArch: Shader 2 finished CTA #4 (38902,0), 7 CTAs running
GPGPU-Sim uArch: core:  2, cta: 4 initialized @(38903,0)
GPGPU-Sim uArch: Shader 3 finished CTA #7 (38904,0), 7 CTAs running
GPGPU-Sim uArch: Shader 12 finished CTA #5 (38904,0), 7 CTAs running
GPGPU-Sim uArch: core:  3, cta: 7 initialized @(38905,0)
GPGPU-Sim uArch: core: 12, cta: 5 initialized @(38905,0)
GPGPU-Sim uArch: Shader 2 finished CTA #3 (38910,0), 7 CTAs running
GPGPU-Sim uArch: core:  2, cta: 3 initialized @(38911,0)
GPGPU-Sim uArch: Shader 11 finished CTA #0 (38912,0), 7 CTAs running
GPGPU-Sim uArch: core: 11, cta: 0 initialized @(38913,0)
GPGPU-Sim uArch: Shader 1 finished CTA #3 (38920,0), 7 CTAs running
GPGPU-Sim uArch: core:  1, cta: 3 initialized @(38921,0)
GPGPU-Sim uArch: Shader 11 finished CTA #2 (38927,0), 7 CTAs running
GPGPU-Sim uArch: core: 11, cta: 2 initialized @(38928,0)
GPGPU-Sim uArch: Shader 1 finished CTA #6 (38940,0), 7 CTAs running
GPGPU-Sim uArch: core:  1, cta: 6 initialized @(38941,0)
GPGPU-Sim uArch: Shader 6 finished CTA #2 (38950,0), 7 CTAs running
GPGPU-Sim uArch: core:  6, cta: 2 initialized @(38951,0)
GPGPU-Sim uArch: Shader 1 finished CTA #1 (38951,0), 7 CTAs running
GPGPU-Sim uArch: core:  1, cta: 1 initialized @(38952,0)
GPGPU-Sim uArch: Shader 3 finished CTA #5 (38968,0), 7 CTAs running
GPGPU-Sim uArch: core:  3, cta: 5 initialized @(38969,0)
GPGPU-Sim uArch: Shader 7 finished CTA #3 (38977,0), 7 CTAs running
GPGPU-Sim uArch: core:  7, cta: 3 initialized @(38978,0)
GPGPU-Sim uArch: Shader 13 finished CTA #4 (38992,0), 7 CTAs running
GPGPU-Sim uArch: core: 13, cta: 4 initialized @(38993,0)
GPGPU-Sim uArch: Shader 14 finished CTA #5 (38996,0), 7 CTAs running
GPGPU-Sim uArch: core: 14, cta: 5 initialized @(38997,0)
GPGPU-Sim uArch: Shader 13 finished CTA #0 (38997,0), 7 CTAs running
GPGPU-Sim uArch: core: 13, cta: 0 initialized @(38998,0)
GPGPU-Sim uArch: Shader 13 finished CTA #3 (39019,0), 7 CTAs running
GPGPU-Sim uArch: core: 13, cta: 3 initialized @(39020,0)
GPGPU-Sim uArch: Shader 1 finished CTA #2 (39024,0), 7 CTAs running
GPGPU-Sim uArch: core:  1, cta: 2 initialized @(39025,0)
GPGPU-Sim uArch: Shader 6 finished CTA #1 (39033,0), 7 CTAs running
GPGPU-Sim uArch: core:  6, cta: 1 initialized @(39034,0)
GPGPU-Sim uArch: Shader 13 finished CTA #6 (39039,0), 7 CTAs running
GPGPU-Sim uArch: core: 13, cta: 6 initialized @(39040,0)
GPGPU-Sim uArch: Shader 6 finished CTA #4 (39040,0), 7 CTAs running
GPGPU-Sim uArch: core:  6, cta: 4 initialized @(39041,0)
GPGPU-Sim uArch: Shader 0 finished CTA #5 (39043,0), 7 CTAs running
GPGPU-Sim uArch: core:  0, cta: 5 initialized @(39044,0)
GPGPU-Sim uArch: Shader 11 finished CTA #7 (39044,0), 7 CTAs running
GPGPU-Sim uArch: core: 11, cta: 7 initialized @(39045,0)
GPGPU-Sim uArch: Shader 14 finished CTA #2 (39046,0), 7 CTAs running
GPGPU-Sim uArch: core: 14, cta: 2 initialized @(39047,0)
GPGPU-Sim uArch: Shader 13 finished CTA #7 (39047,0), 7 CTAs running
GPGPU-Sim uArch: core: 13, cta: 7 initialized @(39048,0)
GPGPU-Sim uArch: Shader 1 finished CTA #0 (39055,0), 7 CTAs running
GPGPU-Sim uArch: core:  1, cta: 0 initialized @(39056,0)
GPGPU-Sim uArch: Shader 0 finished CTA #4 (39058,0), 7 CTAs running
GPGPU-Sim uArch: core:  0, cta: 4 initialized @(39059,0)
GPGPU-Sim uArch: Shader 0 finished CTA #3 (39062,0), 7 CTAs running
GPGPU-Sim uArch: core:  0, cta: 3 initialized @(39063,0)
GPGPU-Sim uArch: Shader 12 finished CTA #0 (39071,0), 7 CTAs running
GPGPU-Sim uArch: core: 12, cta: 0 initialized @(39072,0)
GPGPU-Sim uArch: Shader 13 finished CTA #5 (39072,0), 7 CTAs running
GPGPU-Sim uArch: core: 13, cta: 5 initialized @(39073,0)
GPGPU-Sim uArch: Shader 3 finished CTA #3 (39076,0), 7 CTAs running
GPGPU-Sim uArch: core:  3, cta: 3 initialized @(39077,0)
GPGPU-Sim uArch: Shader 10 finished CTA #6 (39080,0), 7 CTAs running
GPGPU-Sim uArch: core: 10, cta: 6 initialized @(39081,0)
GPGPU-Sim uArch: Shader 6 finished CTA #7 (39082,0), 7 CTAs running
GPGPU-Sim uArch: core:  6, cta: 7 initialized @(39083,0)
GPGPU-Sim uArch: Shader 12 finished CTA #3 (39091,0), 7 CTAs running
GPGPU-Sim uArch: core: 12, cta: 3 initialized @(39092,0)
GPGPU-Sim uArch: Shader 11 finished CTA #1 (39092,0), 7 CTAs running
GPGPU-Sim uArch: core: 11, cta: 1 initialized @(39093,0)
GPGPU-Sim uArch: Shader 14 finished CTA #4 (39094,0), 7 CTAs running
GPGPU-Sim uArch: core: 14, cta: 4 initialized @(39095,0)
GPGPU-Sim uArch: Shader 4 finished CTA #0 (39098,0), 7 CTAs running
GPGPU-Sim uArch: core:  4, cta: 0 initialized @(39099,0)
GPGPU-Sim uArch: Shader 7 finished CTA #5 (39108,0), 7 CTAs running
GPGPU-Sim uArch: core:  7, cta: 5 initialized @(39109,0)
GPGPU-Sim uArch: Shader 13 finished CTA #1 (39114,0), 7 CTAs running
GPGPU-Sim uArch: core: 13, cta: 1 initialized @(39115,0)
GPGPU-Sim uArch: Shader 1 finished CTA #5 (39116,0), 7 CTAs running
GPGPU-Sim uArch: core:  1, cta: 5 initialized @(39117,0)
GPGPU-Sim uArch: Shader 0 finished CTA #7 (39118,0), 7 CTAs running
GPGPU-Sim uArch: Shader 4 finished CTA #1 (39118,0), 7 CTAs running
GPGPU-Sim uArch: core:  4, cta: 1 initialized @(39119,0)
GPGPU-Sim uArch: core:  0, cta: 7 initialized @(39119,0)
GPGPU-Sim uArch: Shader 10 finished CTA #7 (39123,0), 7 CTAs running
GPGPU-Sim uArch: core: 10, cta: 7 initialized @(39124,0)
GPGPU-Sim uArch: Shader 7 finished CTA #1 (39129,0), 7 CTAs running
GPGPU-Sim uArch: core:  7, cta: 1 initialized @(39130,0)
GPGPU-Sim uArch: Shader 7 finished CTA #2 (39135,0), 7 CTAs running
GPGPU-Sim uArch: core:  7, cta: 2 initialized @(39136,0)
GPGPU-Sim uArch: Shader 1 finished CTA #4 (39137,0), 7 CTAs running
GPGPU-Sim uArch: Shader 4 finished CTA #7 (39137,0), 7 CTAs running
GPGPU-Sim uArch: core:  1, cta: 4 initialized @(39138,0)
GPGPU-Sim uArch: core:  4, cta: 7 initialized @(39138,0)
GPGPU-Sim uArch: Shader 10 finished CTA #5 (39144,0), 7 CTAs running
GPGPU-Sim uArch: core: 10, cta: 5 initialized @(39145,0)
GPGPU-Sim uArch: Shader 9 finished CTA #2 (39146,0), 7 CTAs running
GPGPU-Sim uArch: Shader 12 finished CTA #4 (39146,0), 7 CTAs running
GPGPU-Sim uArch: core: 12, cta: 4 initialized @(39147,0)
GPGPU-Sim uArch: core:  9, cta: 2 initialized @(39147,0)
GPGPU-Sim uArch: Shader 12 finished CTA #6 (39149,0), 7 CTAs running
GPGPU-Sim uArch: core: 12, cta: 6 initialized @(39150,0)
GPGPU-Sim uArch: Shader 9 finished CTA #1 (39154,0), 7 CTAs running
GPGPU-Sim uArch: core:  9, cta: 1 initialized @(39155,0)
GPGPU-Sim uArch: Shader 14 finished CTA #3 (39157,0), 7 CTAs running
GPGPU-Sim uArch: core: 14, cta: 3 initialized @(39158,0)
GPGPU-Sim uArch: Shader 14 finished CTA #1 (39163,0), 7 CTAs running
GPGPU-Sim uArch: core: 14, cta: 1 initialized @(39164,0)
GPGPU-Sim uArch: Shader 10 finished CTA #1 (39169,0), 7 CTAs running
GPGPU-Sim uArch: core: 10, cta: 1 initialized @(39170,0)
GPGPU-Sim uArch: Shader 0 finished CTA #0 (39170,0), 7 CTAs running
GPGPU-Sim uArch: core:  0, cta: 0 initialized @(39171,0)
GPGPU-Sim uArch: Shader 6 finished CTA #5 (39178,0), 7 CTAs running
GPGPU-Sim uArch: core:  6, cta: 5 initialized @(39179,0)
GPGPU-Sim uArch: Shader 12 finished CTA #2 (39179,0), 7 CTAs running
GPGPU-Sim uArch: core: 12, cta: 2 initialized @(39180,0)
GPGPU-Sim uArch: Shader 0 finished CTA #2 (39180,0), 7 CTAs running
GPGPU-Sim uArch: Shader 9 finished CTA #3 (39180,0), 7 CTAs running
GPGPU-Sim uArch: core:  0, cta: 2 initialized @(39181,0)
GPGPU-Sim uArch: core:  9, cta: 3 initialized @(39181,0)
GPGPU-Sim uArch: Shader 10 finished CTA #4 (39182,0), 7 CTAs running
GPGPU-Sim uArch: core: 10, cta: 4 initialized @(39183,0)
GPGPU-Sim uArch: Shader 7 finished CTA #0 (39183,0), 7 CTAs running
GPGPU-Sim uArch: Shader 9 finished CTA #5 (39183,0), 7 CTAs running
GPGPU-Sim uArch: core:  7, cta: 0 initialized @(39184,0)
GPGPU-Sim uArch: core:  9, cta: 5 initialized @(39184,0)
GPGPU-Sim uArch: Shader 4 finished CTA #5 (39184,0), 7 CTAs running
GPGPU-Sim uArch: core:  4, cta: 5 initialized @(39185,0)
GPGPU-Sim uArch: Shader 14 finished CTA #0 (39191,0), 7 CTAs running
GPGPU-Sim uArch: core: 14, cta: 0 initialized @(39192,0)
GPGPU-Sim uArch: Shader 9 finished CTA #4 (39193,0), 7 CTAs running
GPGPU-Sim uArch: Shader 14 finished CTA #6 (39193,0), 7 CTAs running
GPGPU-Sim uArch: core:  9, cta: 4 initialized @(39194,0)
GPGPU-Sim uArch: core: 14, cta: 6 initialized @(39194,0)
GPGPU-Sim uArch: Shader 5 finished CTA #2 (39197,0), 7 CTAs running
GPGPU-Sim uArch: Shader 8 finished CTA #3 (39197,0), 7 CTAs running
GPGPU-Sim uArch: core:  5, cta: 2 initialized @(39198,0)
GPGPU-Sim uArch: core:  8, cta: 3 initialized @(39198,0)
GPGPU-Sim uArch: Shader 6 finished CTA #6 (39199,0), 7 CTAs running
GPGPU-Sim uArch: core:  6, cta: 6 initialized @(39200,0)
GPGPU-Sim uArch: Shader 8 finished CTA #1 (39204,0), 7 CTAs running
GPGPU-Sim uArch: core:  8, cta: 1 initialized @(39205,0)
GPGPU-Sim uArch: Shader 4 finished CTA #4 (39207,0), 7 CTAs running
GPGPU-Sim uArch: Shader 9 finished CTA #6 (39207,0), 7 CTAs running
GPGPU-Sim uArch: Shader 14 finished CTA #7 (39207,0), 7 CTAs running
GPGPU-Sim uArch: core:  9, cta: 6 initialized @(39208,0)
GPGPU-Sim uArch: core: 14, cta: 7 initialized @(39208,0)
GPGPU-Sim uArch: core:  4, cta: 4 initialized @(39208,0)
GPGPU-Sim uArch: Shader 4 finished CTA #2 (39210,0), 7 CTAs running
GPGPU-Sim uArch: core:  4, cta: 2 initialized @(39211,0)
GPGPU-Sim uArch: Shader 8 finished CTA #7 (39214,0), 7 CTAs running
GPGPU-Sim uArch: core:  8, cta: 7 initialized @(39215,0)
GPGPU-Sim uArch: Shader 0 finished CTA #1 (39221,0), 7 CTAs running
GPGPU-Sim uArch: core:  0, cta: 1 initialized @(39222,0)
GPGPU-Sim uArch: Shader 5 finished CTA #1 (39224,0), 7 CTAs running
GPGPU-Sim uArch: core:  5, cta: 1 initialized @(39225,0)
GPGPU-Sim uArch: Shader 10 finished CTA #3 (39228,0), 7 CTAs running
GPGPU-Sim uArch: core: 10, cta: 3 initialized @(39229,0)
GPGPU-Sim uArch: Shader 4 finished CTA #3 (39246,0), 7 CTAs running
GPGPU-Sim uArch: core:  4, cta: 3 initialized @(39247,0)
GPGPU-Sim uArch: Shader 5 finished CTA #3 (39250,0), 7 CTAs running
GPGPU-Sim uArch: Shader 8 finished CTA #2 (39250,0), 7 CTAs running
GPGPU-Sim uArch: Shader 10 finished CTA #2 (39250,0), 7 CTAs running
GPGPU-Sim uArch: core:  5, cta: 3 initialized @(39251,0)
GPGPU-Sim uArch: core:  8, cta: 2 initialized @(39251,0)
GPGPU-Sim uArch: core: 10, cta: 2 initialized @(39251,0)
GPGPU-Sim uArch: Shader 4 finished CTA #6 (39254,0), 7 CTAs running
GPGPU-Sim uArch: core:  4, cta: 6 initialized @(39255,0)
GPGPU-Sim uArch: Shader 5 finished CTA #4 (39256,0), 7 CTAs running
GPGPU-Sim uArch: Shader 7 finished CTA #4 (39256,0), 7 CTAs running
GPGPU-Sim uArch: core:  5, cta: 4 initialized @(39257,0)
GPGPU-Sim uArch: core:  7, cta: 4 initialized @(39257,0)
GPGPU-Sim uArch: Shader 8 finished CTA #6 (39258,0), 7 CTAs running
GPGPU-Sim uArch: core:  8, cta: 6 initialized @(39259,0)
GPGPU-Sim uArch: Shader 8 finished CTA #4 (39263,0), 7 CTAs running
GPGPU-Sim uArch: core:  8, cta: 4 initialized @(39264,0)
GPGPU-Sim uArch: Shader 0 finished CTA #6 (39266,0), 7 CTAs running
GPGPU-Sim uArch: Shader 5 finished CTA #7 (39266,0), 7 CTAs running
GPGPU-Sim uArch: Shader 8 finished CTA #5 (39266,0), 7 CTAs running
GPGPU-Sim uArch: core:  0, cta: 6 initialized @(39267,0)
GPGPU-Sim uArch: core:  5, cta: 7 initialized @(39267,0)
GPGPU-Sim uArch: core:  8, cta: 5 initialized @(39267,0)
GPGPU-Sim uArch: Shader 8 finished CTA #0 (39269,0), 7 CTAs running
GPGPU-Sim uArch: core:  8, cta: 0 initialized @(39270,0)
GPGPU-Sim uArch: Shader 7 finished CTA #6 (39271,0), 7 CTAs running
GPGPU-Sim uArch: core:  7, cta: 6 initialized @(39272,0)
GPGPU-Sim uArch: Shader 7 finished CTA #7 (39276,0), 7 CTAs running
GPGPU-Sim uArch: core:  7, cta: 7 initialized @(39277,0)
GPGPU-Sim uArch: Shader 9 finished CTA #7 (39278,0), 7 CTAs running
GPGPU-Sim uArch: core:  9, cta: 7 initialized @(39279,0)
GPGPU-Sim uArch: Shader 12 finished CTA #1 (39282,0), 7 CTAs running
GPGPU-Sim uArch: core: 12, cta: 1 initialized @(39283,0)
GPGPU-Sim uArch: Shader 9 finished CTA #0 (39292,0), 7 CTAs running
GPGPU-Sim uArch: core:  9, cta: 0 initialized @(39293,0)
GPGPU-Sim uArch: Shader 5 finished CTA #5 (39293,0), 7 CTAs running
GPGPU-Sim uArch: core:  5, cta: 5 initialized @(39294,0)
GPGPU-Sim uArch: Shader 10 finished CTA #0 (39297,0), 7 CTAs running
GPGPU-Sim uArch: core: 10, cta: 0 initialized @(39298,0)
GPGPU-Sim uArch: Shader 5 finished CTA #0 (39298,0), 7 CTAs running
GPGPU-Sim uArch: core:  5, cta: 0 initialized @(39299,0)
GPGPU-Sim uArch: Shader 5 finished CTA #6 (39343,0), 7 CTAs running
GPGPU-Sim uArch: core:  5, cta: 6 initialized @(39344,0)
GPGPU-Sim uArch: Shader 2 finished CTA #2 (74613,0), 7 CTAs running
GPGPU-Sim uArch: core:  2, cta: 2 initialized @(74614,0)
GPGPU-Sim uArch: Shader 2 finished CTA #4 (74638,0), 7 CTAs running
GPGPU-Sim uArch: core:  2, cta: 4 initialized @(74639,0)
GPGPU-Sim uArch: Shader 2 finished CTA #3 (74641,0), 7 CTAs running
GPGPU-Sim uArch: core:  2, cta: 3 initialized @(74642,0)
GPGPU-Sim uArch: Shader 2 finished CTA #5 (74644,0), 7 CTAs running
GPGPU-Sim uArch: core:  2, cta: 5 initialized @(74645,0)
GPGPU-Sim uArch: Shader 2 finished CTA #6 (74659,0), 7 CTAs running
GPGPU-Sim uArch: core:  2, cta: 6 initialized @(74660,0)
GPGPU-Sim uArch: Shader 2 finished CTA #1 (74705,0), 7 CTAs running
GPGPU-Sim uArch: core:  2, cta: 1 initialized @(74706,0)
GPGPU-Sim uArch: Shader 2 finished CTA #0 (74737,0), 7 CTAs running
GPGPU-Sim uArch: core:  2, cta: 0 initialized @(74738,0)
GPGPU-Sim uArch: Shader 2 finished CTA #7 (74740,0), 7 CTAs running
GPGPU-Sim uArch: core:  2, cta: 7 initialized @(74741,0)
GPGPU-Sim uArch: Shader 11 finished CTA #0 (75283,0), 7 CTAs running
GPGPU-Sim uArch: core: 11, cta: 0 initialized @(75284,0)
GPGPU-Sim uArch: Shader 11 finished CTA #3 (75286,0), 7 CTAs running
GPGPU-Sim uArch: core: 11, cta: 3 initialized @(75287,0)
GPGPU-Sim uArch: Shader 11 finished CTA #2 (75289,0), 7 CTAs running
GPGPU-Sim uArch: core: 11, cta: 2 initialized @(75290,0)
GPGPU-Sim uArch: Shader 11 finished CTA #4 (75343,0), 7 CTAs running
GPGPU-Sim uArch: core: 11, cta: 4 initialized @(75344,0)
GPGPU-Sim uArch: Shader 11 finished CTA #5 (75346,0), 7 CTAs running
GPGPU-Sim uArch: core: 11, cta: 5 initialized @(75347,0)
GPGPU-Sim uArch: Shader 11 finished CTA #7 (75350,0), 7 CTAs running
GPGPU-Sim uArch: core: 11, cta: 7 initialized @(75351,0)
GPGPU-Sim uArch: Shader 11 finished CTA #1 (75355,0), 7 CTAs running
GPGPU-Sim uArch: core: 11, cta: 1 initialized @(75356,0)
GPGPU-Sim uArch: Shader 11 finished CTA #6 (75366,0), 7 CTAs running
GPGPU-Sim uArch: core: 11, cta: 6 initialized @(75367,0)
GPGPU-Sim uArch: Shader 3 finished CTA #0 (75711,0), 7 CTAs running
GPGPU-Sim uArch: core:  3, cta: 0 initialized @(75712,0)
GPGPU-Sim uArch: Shader 3 finished CTA #3 (75823,0), 7 CTAs running
GPGPU-Sim uArch: core:  3, cta: 3 initialized @(75824,0)
GPGPU-Sim uArch: Shader 3 finished CTA #1 (75826,0), 7 CTAs running
GPGPU-Sim uArch: core:  3, cta: 1 initialized @(75827,0)
GPGPU-Sim uArch: Shader 3 finished CTA #6 (75859,0), 7 CTAs running
GPGPU-Sim uArch: core:  3, cta: 6 initialized @(75860,0)
GPGPU-Sim uArch: Shader 3 finished CTA #7 (75905,0), 7 CTAs running
GPGPU-Sim uArch: core:  3, cta: 7 initialized @(75906,0)
GPGPU-Sim uArch: Shader 13 finished CTA #1 (75919,0), 7 CTAs running
GPGPU-Sim uArch: core: 13, cta: 1 initialized @(75920,0)
GPGPU-Sim uArch: Shader 3 finished CTA #4 (75927,0), 7 CTAs running
GPGPU-Sim uArch: core:  3, cta: 4 initialized @(75928,0)
GPGPU-Sim uArch: Shader 13 finished CTA #2 (75928,0), 7 CTAs running
GPGPU-Sim uArch: core: 13, cta: 2 initialized @(75929,0)
GPGPU-Sim uArch: Shader 3 finished CTA #5 (75957,0), 7 CTAs running
GPGPU-Sim uArch: core:  3, cta: 5 initialized @(75958,0)
GPGPU-Sim uArch: Shader 6 finished CTA #3 (76028,0), 7 CTAs running
GPGPU-Sim uArch: core:  6, cta: 3 initialized @(76029,0)
GPGPU-Sim uArch: Shader 1 finished CTA #7 (76056,0), 7 CTAs running
GPGPU-Sim uArch: core:  1, cta: 7 initialized @(76057,0)
GPGPU-Sim uArch: Shader 3 finished CTA #2 (76057,0), 7 CTAs running
GPGPU-Sim uArch: core:  3, cta: 2 initialized @(76058,0)
GPGPU-Sim uArch: Shader 6 finished CTA #7 (76064,0), 7 CTAs running
GPGPU-Sim uArch: core:  6, cta: 7 initialized @(76065,0)
GPGPU-Sim uArch: Shader 13 finished CTA #5 (76070,0), 7 CTAs running
GPGPU-Sim uArch: core: 13, cta: 5 initialized @(76071,0)
GPGPU-Sim uArch: Shader 13 finished CTA #4 (76077,0), 7 CTAs running
GPGPU-Sim uArch: core: 13, cta: 4 initialized @(76078,0)
GPGPU-Sim uArch: Shader 6 finished CTA #4 (76084,0), 7 CTAs running
GPGPU-Sim uArch: core:  6, cta: 4 initialized @(76085,0)
GPGPU-Sim uArch: Shader 6 finished CTA #1 (76093,0), 7 CTAs running
GPGPU-Sim uArch: core:  6, cta: 1 initialized @(76094,0)
GPGPU-Sim uArch: Shader 13 finished CTA #7 (76130,0), 7 CTAs running
GPGPU-Sim uArch: core: 13, cta: 7 initialized @(76131,0)
GPGPU-Sim uArch: Shader 1 finished CTA #3 (76133,0), 7 CTAs running
GPGPU-Sim uArch: core:  1, cta: 3 initialized @(76134,0)
GPGPU-Sim uArch: Shader 6 finished CTA #2 (76144,0), 7 CTAs running
GPGPU-Sim uArch: core:  6, cta: 2 initialized @(76145,0)
GPGPU-Sim uArch: Shader 6 finished CTA #6 (76147,0), 7 CTAs running
GPGPU-Sim uArch: core:  6, cta: 6 initialized @(76148,0)
GPGPU-Sim uArch: Shader 1 finished CTA #4 (76148,0), 7 CTAs running
GPGPU-Sim uArch: Shader 13 finished CTA #0 (76148,0), 7 CTAs running
GPGPU-Sim uArch: core: 13, cta: 0 initialized @(76149,0)
GPGPU-Sim uArch: core:  1, cta: 4 initialized @(76149,0)
GPGPU-Sim uArch: Shader 1 finished CTA #1 (76170,0), 7 CTAs running
GPGPU-Sim uArch: core:  1, cta: 1 initialized @(76171,0)
GPGPU-Sim uArch: Shader 13 finished CTA #6 (76183,0), 7 CTAs running
GPGPU-Sim uArch: core: 13, cta: 6 initialized @(76184,0)
GPGPU-Sim uArch: Shader 1 finished CTA #5 (76193,0), 7 CTAs running
GPGPU-Sim uArch: core:  1, cta: 5 initialized @(76194,0)
GPGPU-Sim uArch: Shader 13 finished CTA #3 (76218,0), 7 CTAs running
GPGPU-Sim uArch: core: 13, cta: 3 initialized @(76219,0)
GPGPU-Sim uArch: Shader 1 finished CTA #6 (76239,0), 7 CTAs running
GPGPU-Sim uArch: core:  1, cta: 6 initialized @(76240,0)
GPGPU-Sim uArch: Shader 6 finished CTA #5 (76243,0), 7 CTAs running
GPGPU-Sim uArch: core:  6, cta: 5 initialized @(76244,0)
GPGPU-Sim uArch: Shader 1 finished CTA #0 (76256,0), 7 CTAs running
GPGPU-Sim uArch: core:  1, cta: 0 initialized @(76257,0)
GPGPU-Sim uArch: Shader 1 finished CTA #2 (76326,0), 7 CTAs running
GPGPU-Sim uArch: core:  1, cta: 2 initialized @(76327,0)
GPGPU-Sim uArch: Shader 6 finished CTA #0 (76336,0), 7 CTAs running
GPGPU-Sim uArch: core:  6, cta: 0 initialized @(76337,0)
GPGPU-Sim uArch: Shader 4 finished CTA #5 (76868,0), 7 CTAs running
GPGPU-Sim uArch: core:  4, cta: 5 initialized @(76869,0)
GPGPU-Sim uArch: Shader 4 finished CTA #7 (76883,0), 7 CTAs running
GPGPU-Sim uArch: core:  4, cta: 7 initialized @(76884,0)
GPGPU-Sim uArch: Shader 12 finished CTA #7 (76974,0), 7 CTAs running
GPGPU-Sim uArch: core: 12, cta: 7 initialized @(76975,0)
GPGPU-Sim uArch: Shader 4 finished CTA #6 (77018,0), 7 CTAs running
GPGPU-Sim uArch: core:  4, cta: 6 initialized @(77019,0)
GPGPU-Sim uArch: Shader 4 finished CTA #0 (77032,0), 7 CTAs running
GPGPU-Sim uArch: core:  4, cta: 0 initialized @(77033,0)
GPGPU-Sim uArch: Shader 4 finished CTA #2 (77053,0), 7 CTAs running
GPGPU-Sim uArch: core:  4, cta: 2 initialized @(77054,0)
GPGPU-Sim uArch: Shader 4 finished CTA #3 (77084,0), 7 CTAs running
GPGPU-Sim uArch: core:  4, cta: 3 initialized @(77085,0)
GPGPU-Sim uArch: Shader 4 finished CTA #4 (77102,0), 7 CTAs running
GPGPU-Sim uArch: core:  4, cta: 4 initialized @(77103,0)
GPGPU-Sim uArch: Shader 12 finished CTA #1 (77165,0), 7 CTAs running
GPGPU-Sim uArch: core: 12, cta: 1 initialized @(77166,0)
GPGPU-Sim uArch: Shader 14 finished CTA #4 (77170,0), 7 CTAs running
GPGPU-Sim uArch: core: 14, cta: 4 initialized @(77171,0)
GPGPU-Sim uArch: Shader 14 finished CTA #6 (77176,0), 7 CTAs running
GPGPU-Sim uArch: core: 14, cta: 6 initialized @(77177,0)
GPGPU-Sim uArch: Shader 12 finished CTA #6 (77197,0), 7 CTAs running
GPGPU-Sim uArch: core: 12, cta: 6 initialized @(77198,0)
GPGPU-Sim uArch: Shader 4 finished CTA #1 (77204,0), 7 CTAs running
GPGPU-Sim uArch: core:  4, cta: 1 initialized @(77205,0)
GPGPU-Sim uArch: Shader 14 finished CTA #0 (77205,0), 7 CTAs running
GPGPU-Sim uArch: core: 14, cta: 0 initialized @(77206,0)
GPGPU-Sim uArch: Shader 14 finished CTA #5 (77248,0), 7 CTAs running
GPGPU-Sim uArch: core: 14, cta: 5 initialized @(77249,0)
GPGPU-Sim uArch: Shader 12 finished CTA #5 (77269,0), 7 CTAs running
GPGPU-Sim uArch: core: 12, cta: 5 initialized @(77270,0)
GPGPU-Sim uArch: Shader 12 finished CTA #0 (77272,0), 7 CTAs running
GPGPU-Sim uArch: core: 12, cta: 0 initialized @(77273,0)
GPGPU-Sim uArch: Shader 14 finished CTA #1 (77277,0), 7 CTAs running
GPGPU-Sim uArch: core: 14, cta: 1 initialized @(77278,0)
GPGPU-Sim uArch: Shader 7 finished CTA #2 (77303,0), 7 CTAs running
GPGPU-Sim uArch: core:  7, cta: 2 initialized @(77304,0)
GPGPU-Sim uArch: Shader 14 finished CTA #3 (77309,0), 7 CTAs running
GPGPU-Sim uArch: core: 14, cta: 3 initialized @(77310,0)
GPGPU-Sim uArch: Shader 14 finished CTA #2 (77326,0), 7 CTAs running
GPGPU-Sim uArch: core: 14, cta: 2 initialized @(77327,0)
GPGPU-Sim uArch: Shader 12 finished CTA #4 (77327,0), 7 CTAs running
GPGPU-Sim uArch: core: 12, cta: 4 initialized @(77328,0)
GPGPU-Sim uArch: Shader 14 finished CTA #7 (77332,0), 7 CTAs running
GPGPU-Sim uArch: core: 14, cta: 7 initialized @(77333,0)
GPGPU-Sim uArch: Shader 12 finished CTA #3 (77333,0), 7 CTAs running
GPGPU-Sim uArch: core: 12, cta: 3 initialized @(77334,0)
GPGPU-Sim uArch: Shader 7 finished CTA #7 (77371,0), 7 CTAs running
GPGPU-Sim uArch: core:  7, cta: 7 initialized @(77372,0)
GPGPU-Sim uArch: Shader 12 finished CTA #2 (77390,0), 7 CTAs running
GPGPU-Sim uArch: core: 12, cta: 2 initialized @(77391,0)
GPGPU-Sim uArch: Shader 7 finished CTA #0 (77426,0), 7 CTAs running
GPGPU-Sim uArch: core:  7, cta: 0 initialized @(77427,0)
GPGPU-Sim uArch: Shader 7 finished CTA #5 (77429,0), 7 CTAs running
GPGPU-Sim uArch: core:  7, cta: 5 initialized @(77430,0)
GPGPU-Sim uArch: Shader 7 finished CTA #3 (77436,0), 7 CTAs running
GPGPU-Sim uArch: core:  7, cta: 3 initialized @(77437,0)
GPGPU-Sim uArch: Shader 7 finished CTA #6 (77462,0), 7 CTAs running
GPGPU-Sim uArch: core:  7, cta: 6 initialized @(77463,0)
GPGPU-Sim uArch: Shader 5 finished CTA #7 (77474,0), 7 CTAs running
GPGPU-Sim uArch: core:  5, cta: 7 initialized @(77475,0)
GPGPU-Sim uArch: Shader 10 finished CTA #6 (77482,0), 7 CTAs running
GPGPU-Sim uArch: core: 10, cta: 6 initialized @(77483,0)
GPGPU-Sim uArch: Shader 5 finished CTA #6 (77494,0), 7 CTAs running
GPGPU-Sim uArch: core:  5, cta: 6 initialized @(77495,0)
GPGPU-Sim uArch: Shader 10 finished CTA #5 (77528,0), 7 CTAs running
GPGPU-Sim uArch: core: 10, cta: 5 initialized @(77529,0)
GPGPU-Sim uArch: Shader 5 finished CTA #3 (77530,0), 7 CTAs running
GPGPU-Sim uArch: core:  5, cta: 3 initialized @(77531,0)
GPGPU-Sim uArch: Shader 7 finished CTA #4 (77532,0), 7 CTAs running
GPGPU-Sim uArch: core:  7, cta: 4 initialized @(77533,0)
GPGPU-Sim uArch: Shader 5 finished CTA #5 (77533,0), 7 CTAs running
GPGPU-Sim uArch: core:  5, cta: 5 initialized @(77534,0)
GPGPU-Sim uArch: Shader 5 finished CTA #2 (77559,0), 7 CTAs running
GPGPU-Sim uArch: core:  5, cta: 2 initialized @(77560,0)
GPGPU-Sim uArch: Shader 5 finished CTA #4 (77572,0), 7 CTAs running
GPGPU-Sim uArch: core:  5, cta: 4 initialized @(77573,0)
GPGPU-Sim uArch: Shader 10 finished CTA #3 (77578,0), 7 CTAs running
GPGPU-Sim uArch: core: 10, cta: 3 initialized @(77579,0)
GPGPU-Sim uArch: Shader 7 finished CTA #1 (77584,0), 7 CTAs running
GPGPU-Sim uArch: Shader 10 finished CTA #0 (77584,0), 7 CTAs running
GPGPU-Sim uArch: core:  7, cta: 1 initialized @(77585,0)
GPGPU-Sim uArch: core: 10, cta: 0 initialized @(77585,0)
GPGPU-Sim uArch: Shader 10 finished CTA #7 (77595,0), 7 CTAs running
GPGPU-Sim uArch: core: 10, cta: 7 initialized @(77596,0)
GPGPU-Sim uArch: Shader 10 finished CTA #4 (77598,0), 7 CTAs running
GPGPU-Sim uArch: core: 10, cta: 4 initialized @(77599,0)
GPGPU-Sim uArch: Shader 10 finished CTA #2 (77616,0), 7 CTAs running
GPGPU-Sim uArch: core: 10, cta: 2 initialized @(77617,0)
GPGPU-Sim uArch: Shader 5 finished CTA #0 (77626,0), 7 CTAs running
GPGPU-Sim uArch: core:  5, cta: 0 initialized @(77627,0)
GPGPU-Sim uArch: Shader 10 finished CTA #1 (77652,0), 7 CTAs running
GPGPU-Sim uArch: core: 10, cta: 1 initialized @(77653,0)
GPGPU-Sim uArch: Shader 9 finished CTA #5 (77653,0), 7 CTAs running
GPGPU-Sim uArch: core:  9, cta: 5 initialized @(77654,0)
GPGPU-Sim uArch: Shader 5 finished CTA #1 (77669,0), 7 CTAs running
GPGPU-Sim uArch: core:  5, cta: 1 initialized @(77670,0)
GPGPU-Sim uArch: Shader 9 finished CTA #7 (77753,0), 7 CTAs running
GPGPU-Sim uArch: core:  9, cta: 7 initialized @(77754,0)
GPGPU-Sim uArch: Shader 9 finished CTA #6 (77769,0), 7 CTAs running
GPGPU-Sim uArch: core:  9, cta: 6 initialized @(77770,0)
GPGPU-Sim uArch: Shader 9 finished CTA #1 (77801,0), 7 CTAs running
GPGPU-Sim uArch: core:  9, cta: 1 initialized @(77802,0)
GPGPU-Sim uArch: Shader 9 finished CTA #3 (77866,0), 7 CTAs running
GPGPU-Sim uArch: core:  9, cta: 3 initialized @(77867,0)
GPGPU-Sim uArch: Shader 9 finished CTA #0 (77878,0), 7 CTAs running
GPGPU-Sim uArch: core:  9, cta: 0 initialized @(77879,0)
GPGPU-Sim uArch: Shader 9 finished CTA #2 (77889,0), 7 CTAs running
GPGPU-Sim uArch: core:  9, cta: 2 initialized @(77890,0)
GPGPU-Sim uArch: Shader 9 finished CTA #4 (77903,0), 7 CTAs running
GPGPU-Sim uArch: core:  9, cta: 4 initialized @(77904,0)
GPGPU-Sim uArch: Shader 8 finished CTA #0 (77957,0), 7 CTAs running
GPGPU-Sim uArch: core:  8, cta: 0 initialized @(77958,0)
GPGPU-Sim uArch: Shader 8 finished CTA #1 (77960,0), 7 CTAs running
GPGPU-Sim uArch: core:  8, cta: 1 initialized @(77961,0)
GPGPU-Sim uArch: Shader 8 finished CTA #3 (77985,0), 7 CTAs running
GPGPU-Sim uArch: core:  8, cta: 3 initialized @(77986,0)
GPGPU-Sim uArch: Shader 8 finished CTA #4 (77995,0), 7 CTAs running
GPGPU-Sim uArch: core:  8, cta: 4 initialized @(77996,0)
GPGPU-Sim uArch: Shader 8 finished CTA #2 (77998,0), 7 CTAs running
GPGPU-Sim uArch: core:  8, cta: 2 initialized @(77999,0)
GPGPU-Sim uArch: Shader 8 finished CTA #5 (78003,0), 7 CTAs running
GPGPU-Sim uArch: core:  8, cta: 5 initialized @(78004,0)
GPGPU-Sim uArch: Shader 8 finished CTA #6 (78013,0), 7 CTAs running
GPGPU-Sim uArch: core:  8, cta: 6 initialized @(78014,0)
GPGPU-Sim uArch: Shader 8 finished CTA #7 (78020,0), 7 CTAs running
GPGPU-Sim uArch: core:  8, cta: 7 initialized @(78021,0)
GPGPU-Sim uArch: Shader 0 finished CTA #4 (78022,0), 7 CTAs running
GPGPU-Sim uArch: core:  0, cta: 4 initialized @(78023,0)
GPGPU-Sim uArch: Shader 0 finished CTA #5 (78041,0), 7 CTAs running
GPGPU-Sim uArch: core:  0, cta: 5 initialized @(78042,0)
GPGPU-Sim uArch: Shader 0 finished CTA #3 (78044,0), 7 CTAs running
GPGPU-Sim uArch: core:  0, cta: 3 initialized @(78045,0)
GPGPU-Sim uArch: Shader 0 finished CTA #7 (78050,0), 7 CTAs running
GPGPU-Sim uArch: core:  0, cta: 7 initialized @(78051,0)
GPGPU-Sim uArch: Shader 0 finished CTA #0 (78057,0), 7 CTAs running
GPGPU-Sim uArch: core:  0, cta: 0 initialized @(78058,0)
GPGPU-Sim uArch: Shader 0 finished CTA #6 (78074,0), 7 CTAs running
GPGPU-Sim uArch: core:  0, cta: 6 initialized @(78075,0)
GPGPU-Sim uArch: Shader 0 finished CTA #2 (78077,0), 7 CTAs running
GPGPU-Sim uArch: core:  0, cta: 2 initialized @(78078,0)
GPGPU-Sim uArch: Shader 0 finished CTA #1 (78082,0), 7 CTAs running
GPGPU-Sim uArch: core:  0, cta: 1 initialized @(78083,0)
GPGPU-Sim uArch: Shader 2 finished CTA #3 (113156,0), 7 CTAs running
GPGPU-Sim uArch: core:  2, cta: 3 initialized @(113157,0)
GPGPU-Sim uArch: Shader 2 finished CTA #2 (113239,0), 7 CTAs running
GPGPU-Sim uArch: core:  2, cta: 2 initialized @(113240,0)
GPGPU-Sim uArch: Shader 2 finished CTA #4 (113269,0), 7 CTAs running
GPGPU-Sim uArch: core:  2, cta: 4 initialized @(113270,0)
GPGPU-Sim uArch: Shader 2 finished CTA #5 (113302,0), 7 CTAs running
GPGPU-Sim uArch: core:  2, cta: 5 initialized @(113303,0)
GPGPU-Sim uArch: Shader 2 finished CTA #0 (113309,0), 7 CTAs running
GPGPU-Sim uArch: core:  2, cta: 0 initialized @(113310,0)
GPGPU-Sim uArch: Shader 2 finished CTA #1 (113329,0), 7 CTAs running
GPGPU-Sim uArch: core:  2, cta: 1 initialized @(113330,0)
GPGPU-Sim uArch: Shader 2 finished CTA #6 (113333,0), 7 CTAs running
GPGPU-Sim uArch: Shader 2 finished CTA #7 (113333,0), 6 CTAs running
GPGPU-Sim uArch: core:  2, cta: 6 initialized @(113334,0)
GPGPU-Sim uArch: core:  2, cta: 7 initialized @(113335,0)
GPGPU-Sim uArch: Shader 3 finished CTA #6 (113959,0), 7 CTAs running
GPGPU-Sim uArch: core:  3, cta: 6 initialized @(113960,0)
GPGPU-Sim uArch: Shader 3 finished CTA #7 (113977,0), 7 CTAs running
GPGPU-Sim uArch: core:  3, cta: 7 initialized @(113978,0)
GPGPU-Sim uArch: Shader 3 finished CTA #0 (113996,0), 7 CTAs running
GPGPU-Sim uArch: core:  3, cta: 0 initialized @(113997,0)
GPGPU-Sim uArch: Shader 3 finished CTA #3 (114019,0), 7 CTAs running
GPGPU-Sim uArch: core:  3, cta: 3 initialized @(114020,0)
GPGPU-Sim uArch: Shader 3 finished CTA #2 (114022,0), 7 CTAs running
GPGPU-Sim uArch: core:  3, cta: 2 initialized @(114023,0)
GPGPU-Sim uArch: Shader 3 finished CTA #4 (114027,0), 7 CTAs running
GPGPU-Sim uArch: core:  3, cta: 4 initialized @(114028,0)
GPGPU-Sim uArch: Shader 3 finished CTA #5 (114030,0), 7 CTAs running
GPGPU-Sim uArch: core:  3, cta: 5 initialized @(114031,0)
GPGPU-Sim uArch: Shader 13 finished CTA #5 (114069,0), 7 CTAs running
GPGPU-Sim uArch: core: 13, cta: 5 initialized @(114070,0)
GPGPU-Sim uArch: Shader 3 finished CTA #1 (114118,0), 7 CTAs running
GPGPU-Sim uArch: core:  3, cta: 1 initialized @(114119,0)
GPGPU-Sim uArch: Shader 13 finished CTA #2 (114167,0), 7 CTAs running
GPGPU-Sim uArch: core: 13, cta: 2 initialized @(114168,0)
GPGPU-Sim uArch: Shader 13 finished CTA #0 (114217,0), 7 CTAs running
GPGPU-Sim uArch: core: 13, cta: 0 initialized @(114218,0)
GPGPU-Sim uArch: Shader 13 finished CTA #1 (114235,0), 7 CTAs running
GPGPU-Sim uArch: core: 13, cta: 1 initialized @(114236,0)
GPGPU-Sim uArch: Shader 13 finished CTA #7 (114238,0), 7 CTAs running
GPGPU-Sim uArch: core: 13, cta: 7 initialized @(114239,0)
GPGPU-Sim uArch: Shader 13 finished CTA #6 (114243,0), 7 CTAs running
GPGPU-Sim uArch: core: 13, cta: 6 initialized @(114244,0)
GPGPU-Sim uArch: Shader 13 finished CTA #3 (114247,0), 7 CTAs running
GPGPU-Sim uArch: core: 13, cta: 3 initialized @(114248,0)
GPGPU-Sim uArch: Shader 13 finished CTA #4 (114309,0), 7 CTAs running
GPGPU-Sim uArch: core: 13, cta: 4 initialized @(114310,0)
GPGPU-Sim uArch: Shader 6 finished CTA #3 (114396,0), 7 CTAs running
GPGPU-Sim uArch: core:  6, cta: 3 initialized @(114397,0)
GPGPU-Sim uArch: Shader 14 finished CTA #7 (114514,0), 7 CTAs running
GPGPU-Sim uArch: core: 14, cta: 7 initialized @(114515,0)
GPGPU-Sim uArch: Shader 6 finished CTA #5 (114521,0), 7 CTAs running
GPGPU-Sim uArch: core:  6, cta: 5 initialized @(114522,0)
GPGPU-Sim uArch: Shader 6 finished CTA #0 (114556,0), 7 CTAs running
GPGPU-Sim uArch: core:  6, cta: 0 initialized @(114557,0)
GPGPU-Sim uArch: Shader 6 finished CTA #7 (114570,0), 7 CTAs running
GPGPU-Sim uArch: core:  6, cta: 7 initialized @(114571,0)
GPGPU-Sim uArch: Shader 6 finished CTA #2 (114584,0), 7 CTAs running
GPGPU-Sim uArch: core:  6, cta: 2 initialized @(114585,0)
GPGPU-Sim uArch: Shader 6 finished CTA #4 (114603,0), 7 CTAs running
GPGPU-Sim uArch: Shader 6 finished CTA #6 (114603,0), 6 CTAs running
GPGPU-Sim uArch: core:  6, cta: 4 initialized @(114604,0)
GPGPU-Sim uArch: core:  6, cta: 6 initialized @(114605,0)
GPGPU-Sim uArch: Shader 14 finished CTA #0 (114722,0), 7 CTAs running
GPGPU-Sim uArch: core: 14, cta: 0 initialized @(114723,0)
GPGPU-Sim uArch: Shader 14 finished CTA #3 (114746,0), 7 CTAs running
GPGPU-Sim uArch: core: 14, cta: 3 initialized @(114747,0)
GPGPU-Sim uArch: Shader 14 finished CTA #6 (114763,0), 7 CTAs running
GPGPU-Sim uArch: core: 14, cta: 6 initialized @(114764,0)
GPGPU-Sim uArch: Shader 14 finished CTA #1 (114766,0), 7 CTAs running
GPGPU-Sim uArch: core: 14, cta: 1 initialized @(114767,0)
GPGPU-Sim uArch: Shader 6 finished CTA #1 (114833,0), 7 CTAs running
GPGPU-Sim uArch: core:  6, cta: 1 initialized @(114834,0)
GPGPU-Sim uArch: Shader 14 finished CTA #5 (114861,0), 7 CTAs running
GPGPU-Sim uArch: core: 14, cta: 5 initialized @(114862,0)
GPGPU-Sim uArch: Shader 14 finished CTA #4 (114901,0), 7 CTAs running
GPGPU-Sim uArch: core: 14, cta: 4 initialized @(114902,0)
GPGPU-Sim uArch: Shader 11 finished CTA #3 (114926,0), 7 CTAs running
GPGPU-Sim uArch: core: 11, cta: 3 initialized @(114927,0)
GPGPU-Sim uArch: Shader 11 finished CTA #6 (114929,0), 7 CTAs running
GPGPU-Sim uArch: core: 11, cta: 6 initialized @(114930,0)
GPGPU-Sim uArch: Shader 14 finished CTA #2 (114948,0), 7 CTAs running
GPGPU-Sim uArch: core: 14, cta: 2 initialized @(114949,0)
GPGPU-Sim uArch: Shader 11 finished CTA #7 (114952,0), 7 CTAs running
GPGPU-Sim uArch: core: 11, cta: 7 initialized @(114953,0)
GPGPU-Sim uArch: Shader 11 finished CTA #1 (114957,0), 7 CTAs running
GPGPU-Sim uArch: core: 11, cta: 1 initialized @(114958,0)
GPGPU-Sim uArch: Shader 11 finished CTA #5 (114965,0), 7 CTAs running
GPGPU-Sim uArch: core: 11, cta: 5 initialized @(114966,0)
GPGPU-Sim uArch: Shader 11 finished CTA #0 (115033,0), 7 CTAs running
GPGPU-Sim uArch: core: 11, cta: 0 initialized @(115034,0)
GPGPU-Sim uArch: Shader 11 finished CTA #2 (115080,0), 7 CTAs running
GPGPU-Sim uArch: core: 11, cta: 2 initialized @(115081,0)
GPGPU-Sim uArch: Shader 11 finished CTA #4 (115099,0), 7 CTAs running
GPGPU-Sim uArch: core: 11, cta: 4 initialized @(115100,0)
GPGPU-Sim uArch: Shader 1 finished CTA #6 (115272,0), 7 CTAs running
GPGPU-Sim uArch: core:  1, cta: 6 initialized @(115273,0)
GPGPU-Sim uArch: Shader 12 finished CTA #1 (115273,0), 7 CTAs running
GPGPU-Sim uArch: core: 12, cta: 1 initialized @(115274,0)
GPGPU-Sim uArch: Shader 1 finished CTA #0 (115275,0), 7 CTAs running
GPGPU-Sim uArch: core:  1, cta: 0 initialized @(115276,0)
GPGPU-Sim uArch: Shader 12 finished CTA #5 (115276,0), 7 CTAs running
GPGPU-Sim uArch: core: 12, cta: 5 initialized @(115277,0)
GPGPU-Sim uArch: Shader 1 finished CTA #7 (115279,0), 7 CTAs running
GPGPU-Sim uArch: core:  1, cta: 7 initialized @(115280,0)
GPGPU-Sim uArch: Shader 12 finished CTA #4 (115280,0), 7 CTAs running
GPGPU-Sim uArch: core: 12, cta: 4 initialized @(115281,0)
GPGPU-Sim uArch: Shader 1 finished CTA #1 (115283,0), 7 CTAs running
GPGPU-Sim uArch: core:  1, cta: 1 initialized @(115284,0)
GPGPU-Sim uArch: Shader 12 finished CTA #7 (115296,0), 7 CTAs running
GPGPU-Sim uArch: core: 12, cta: 7 initialized @(115297,0)
GPGPU-Sim uArch: Shader 12 finished CTA #2 (115312,0), 7 CTAs running
GPGPU-Sim uArch: core: 12, cta: 2 initialized @(115313,0)
GPGPU-Sim uArch: Shader 1 finished CTA #5 (115357,0), 7 CTAs running
GPGPU-Sim uArch: core:  1, cta: 5 initialized @(115358,0)
GPGPU-Sim uArch: Shader 7 finished CTA #5 (115363,0), 7 CTAs running
GPGPU-Sim uArch: core:  7, cta: 5 initialized @(115364,0)
GPGPU-Sim uArch: Shader 12 finished CTA #6 (115375,0), 7 CTAs running
GPGPU-Sim uArch: core: 12, cta: 6 initialized @(115376,0)
GPGPU-Sim uArch: Shader 12 finished CTA #3 (115387,0), 7 CTAs running
GPGPU-Sim uArch: core: 12, cta: 3 initialized @(115388,0)
GPGPU-Sim uArch: Shader 1 finished CTA #4 (115438,0), 7 CTAs running
GPGPU-Sim uArch: core:  1, cta: 4 initialized @(115439,0)
GPGPU-Sim uArch: Shader 12 finished CTA #0 (115444,0), 7 CTAs running
GPGPU-Sim uArch: core: 12, cta: 0 initialized @(115445,0)
GPGPU-Sim uArch: Shader 7 finished CTA #1 (115460,0), 7 CTAs running
GPGPU-Sim uArch: core:  7, cta: 1 initialized @(115461,0)
GPGPU-Sim uArch: Shader 1 finished CTA #3 (115461,0), 7 CTAs running
GPGPU-Sim uArch: core:  1, cta: 3 initialized @(115462,0)
GPGPU-Sim uArch: Shader 1 finished CTA #2 (115520,0), 7 CTAs running
GPGPU-Sim uArch: core:  1, cta: 2 initialized @(115521,0)
GPGPU-Sim uArch: Shader 7 finished CTA #7 (115535,0), 7 CTAs running
GPGPU-Sim uArch: core:  7, cta: 7 initialized @(115536,0)
GPGPU-Sim uArch: Shader 7 finished CTA #6 (115661,0), 7 CTAs running
GPGPU-Sim uArch: core:  7, cta: 6 initialized @(115662,0)
GPGPU-Sim uArch: Shader 7 finished CTA #4 (115667,0), 7 CTAs running
GPGPU-Sim uArch: core:  7, cta: 4 initialized @(115668,0)
GPGPU-Sim uArch: Shader 7 finished CTA #0 (115737,0), 7 CTAs running
GPGPU-Sim uArch: core:  7, cta: 0 initialized @(115738,0)
GPGPU-Sim uArch: Shader 7 finished CTA #3 (115740,0), 7 CTAs running
GPGPU-Sim uArch: core:  7, cta: 3 initialized @(115741,0)
GPGPU-Sim uArch: Shader 7 finished CTA #2 (115767,0), 7 CTAs running
GPGPU-Sim uArch: core:  7, cta: 2 initialized @(115768,0)
GPGPU-Sim uArch: Shader 0 finished CTA #0 (115833,0), 7 CTAs running
GPGPU-Sim uArch: core:  0, cta: 0 initialized @(115834,0)
GPGPU-Sim uArch: Shader 0 finished CTA #1 (115883,0), 7 CTAs running
GPGPU-Sim uArch: core:  0, cta: 1 initialized @(115884,0)
GPGPU-Sim uArch: Shader 8 finished CTA #3 (115887,0), 7 CTAs running
GPGPU-Sim uArch: core:  8, cta: 3 initialized @(115888,0)
GPGPU-Sim uArch: Shader 0 finished CTA #5 (115931,0), 7 CTAs running
GPGPU-Sim uArch: core:  0, cta: 5 initialized @(115932,0)
GPGPU-Sim uArch: Shader 0 finished CTA #2 (115941,0), 7 CTAs running
GPGPU-Sim uArch: core:  0, cta: 2 initialized @(115942,0)
GPGPU-Sim uArch: Shader 0 finished CTA #3 (115945,0), 7 CTAs running
GPGPU-Sim uArch: core:  0, cta: 3 initialized @(115946,0)
GPGPU-Sim uArch: Shader 0 finished CTA #6 (115965,0), 7 CTAs running
GPGPU-Sim uArch: core:  0, cta: 6 initialized @(115966,0)
GPGPU-Sim uArch: Shader 8 finished CTA #7 (115967,0), 7 CTAs running
GPGPU-Sim uArch: core:  8, cta: 7 initialized @(115968,0)
GPGPU-Sim uArch: Shader 8 finished CTA #6 (115989,0), 7 CTAs running
GPGPU-Sim uArch: core:  8, cta: 6 initialized @(115990,0)
GPGPU-Sim uArch: Shader 8 finished CTA #1 (116007,0), 7 CTAs running
GPGPU-Sim uArch: core:  8, cta: 1 initialized @(116008,0)
GPGPU-Sim uArch: Shader 0 finished CTA #4 (116030,0), 7 CTAs running
GPGPU-Sim uArch: core:  0, cta: 4 initialized @(116031,0)
GPGPU-Sim uArch: Shader 8 finished CTA #4 (116042,0), 7 CTAs running
GPGPU-Sim uArch: core:  8, cta: 4 initialized @(116043,0)
GPGPU-Sim uArch: Shader 8 finished CTA #5 (116046,0), 7 CTAs running
GPGPU-Sim uArch: core:  8, cta: 5 initialized @(116047,0)
GPGPU-Sim uArch: Shader 4 finished CTA #3 (116072,0), 7 CTAs running
GPGPU-Sim uArch: core:  4, cta: 3 initialized @(116073,0)
GPGPU-Sim uArch: Shader 0 finished CTA #7 (116123,0), 7 CTAs running
GPGPU-Sim uArch: core:  0, cta: 7 initialized @(116124,0)
GPGPU-Sim uArch: Shader 8 finished CTA #2 (116126,0), 7 CTAs running
GPGPU-Sim uArch: core:  8, cta: 2 initialized @(116127,0)
GPGPU-Sim uArch: Shader 4 finished CTA #4 (116129,0), 7 CTAs running
GPGPU-Sim uArch: core:  4, cta: 4 initialized @(116130,0)
GPGPU-Sim uArch: Shader 4 finished CTA #6 (116132,0), 7 CTAs running
GPGPU-Sim uArch: core:  4, cta: 6 initialized @(116133,0)
GPGPU-Sim uArch: Shader 8 finished CTA #0 (116133,0), 7 CTAs running
GPGPU-Sim uArch: core:  8, cta: 0 initialized @(116134,0)
GPGPU-Sim uArch: Shader 4 finished CTA #2 (116169,0), 7 CTAs running
GPGPU-Sim uArch: core:  4, cta: 2 initialized @(116170,0)
GPGPU-Sim uArch: Shader 4 finished CTA #0 (116191,0), 7 CTAs running
GPGPU-Sim uArch: core:  4, cta: 0 initialized @(116192,0)
GPGPU-Sim uArch: Shader 5 finished CTA #1 (116194,0), 7 CTAs running
GPGPU-Sim uArch: core:  5, cta: 1 initialized @(116195,0)
GPGPU-Sim uArch: Shader 4 finished CTA #7 (116196,0), 7 CTAs running
GPGPU-Sim uArch: core:  4, cta: 7 initialized @(116197,0)
GPGPU-Sim uArch: Shader 5 finished CTA #2 (116202,0), 7 CTAs running
GPGPU-Sim uArch: core:  5, cta: 2 initialized @(116203,0)
GPGPU-Sim uArch: Shader 5 finished CTA #3 (116209,0), 7 CTAs running
GPGPU-Sim uArch: core:  5, cta: 3 initialized @(116210,0)
GPGPU-Sim uArch: Shader 5 finished CTA #4 (116239,0), 7 CTAs running
GPGPU-Sim uArch: core:  5, cta: 4 initialized @(116240,0)
GPGPU-Sim uArch: Shader 4 finished CTA #5 (116246,0), 7 CTAs running
GPGPU-Sim uArch: Shader 5 finished CTA #7 (116246,0), 7 CTAs running
GPGPU-Sim uArch: core:  4, cta: 5 initialized @(116247,0)
GPGPU-Sim uArch: core:  5, cta: 7 initialized @(116247,0)
GPGPU-Sim uArch: Shader 5 finished CTA #6 (116249,0), 7 CTAs running
GPGPU-Sim uArch: core:  5, cta: 6 initialized @(116250,0)
GPGPU-Sim uArch: Shader 4 finished CTA #1 (116258,0), 7 CTAs running
GPGPU-Sim uArch: core:  4, cta: 1 initialized @(116259,0)
GPGPU-Sim uArch: Shader 5 finished CTA #5 (116297,0), 7 CTAs running
GPGPU-Sim uArch: core:  5, cta: 5 initialized @(116298,0)
GPGPU-Sim uArch: Shader 5 finished CTA #0 (116313,0), 7 CTAs running
GPGPU-Sim uArch: core:  5, cta: 0 initialized @(116314,0)
GPGPU-Sim uArch: Shader 10 finished CTA #7 (116354,0), 7 CTAs running
GPGPU-Sim uArch: core: 10, cta: 7 initialized @(116355,0)
GPGPU-Sim uArch: Shader 10 finished CTA #0 (116364,0), 7 CTAs running
GPGPU-Sim uArch: core: 10, cta: 0 initialized @(116365,0)
GPGPU-Sim uArch: Shader 10 finished CTA #6 (116367,0), 7 CTAs running
GPGPU-Sim uArch: core: 10, cta: 6 initialized @(116368,0)
GPGPU-Sim uArch: Shader 10 finished CTA #1 (116372,0), 7 CTAs running
GPGPU-Sim uArch: core: 10, cta: 1 initialized @(116373,0)
GPGPU-Sim uArch: Shader 10 finished CTA #3 (116391,0), 7 CTAs running
GPGPU-Sim uArch: core: 10, cta: 3 initialized @(116392,0)
GPGPU-Sim uArch: Shader 10 finished CTA #5 (116410,0), 7 CTAs running
GPGPU-Sim uArch: core: 10, cta: 5 initialized @(116411,0)
GPGPU-Sim uArch: Shader 10 finished CTA #4 (116413,0), 7 CTAs running
GPGPU-Sim uArch: core: 10, cta: 4 initialized @(116414,0)
GPGPU-Sim uArch: Shader 10 finished CTA #2 (116436,0), 7 CTAs running
GPGPU-Sim uArch: core: 10, cta: 2 initialized @(116437,0)
GPGPU-Sim uArch: Shader 9 finished CTA #3 (116688,0), 7 CTAs running
GPGPU-Sim uArch: core:  9, cta: 3 initialized @(116689,0)
GPGPU-Sim uArch: Shader 9 finished CTA #4 (116699,0), 7 CTAs running
GPGPU-Sim uArch: core:  9, cta: 4 initialized @(116700,0)
GPGPU-Sim uArch: Shader 9 finished CTA #5 (116713,0), 7 CTAs running
GPGPU-Sim uArch: core:  9, cta: 5 initialized @(116714,0)
GPGPU-Sim uArch: Shader 9 finished CTA #6 (116718,0), 7 CTAs running
GPGPU-Sim uArch: core:  9, cta: 6 initialized @(116719,0)
GPGPU-Sim uArch: Shader 9 finished CTA #7 (116729,0), 7 CTAs running
GPGPU-Sim uArch: core:  9, cta: 7 initialized @(116730,0)
GPGPU-Sim uArch: Shader 9 finished CTA #0 (116736,0), 7 CTAs running
GPGPU-Sim uArch: core:  9, cta: 0 initialized @(116737,0)
GPGPU-Sim uArch: Shader 9 finished CTA #1 (116746,0), 7 CTAs running
GPGPU-Sim uArch: core:  9, cta: 1 initialized @(116747,0)
GPGPU-Sim uArch: Shader 9 finished CTA #2 (116756,0), 7 CTAs running
GPGPU-Sim uArch: core:  9, cta: 2 initialized @(116757,0)
GPGPU-Sim uArch: Shader 14 finished CTA #5 (151723,0), 7 CTAs running
GPGPU-Sim uArch: core: 14, cta: 5 initialized @(151724,0)
GPGPU-Sim uArch: Shader 14 finished CTA #4 (151740,0), 7 CTAs running
GPGPU-Sim uArch: core: 14, cta: 4 initialized @(151741,0)
GPGPU-Sim uArch: Shader 14 finished CTA #6 (151747,0), 7 CTAs running
GPGPU-Sim uArch: core: 14, cta: 6 initialized @(151748,0)
GPGPU-Sim uArch: Shader 14 finished CTA #0 (151756,0), 7 CTAs running
GPGPU-Sim uArch: core: 14, cta: 0 initialized @(151757,0)
GPGPU-Sim uArch: Shader 14 finished CTA #7 (151773,0), 7 CTAs running
GPGPU-Sim uArch: core: 14, cta: 7 initialized @(151774,0)
[...]
traffic_breakdown_coretomem[GLOBAL_ACC_R] = 339104 {8:42388,}
traffic_breakdown_coretomem[GLOBAL_ACC_W] = 11706616 {40:30649,72:28140,136:62166,}
traffic_breakdown_coretomem[INST_ACC_R] = 36288 {8:4536,}
traffic_breakdown_coretomem[TEXTURE_ACC_R] = 22840 {8:2855,}
traffic_breakdown_memtocore[CONST_ACC_R] = 1080 {72:15,}
traffic_breakdown_memtocore[GLOBAL_ACC_R] = 5764768 {136:42388,}
traffic_breakdown_memtocore[GLOBAL_ACC_W] = 967640 {8:120955,}
traffic_breakdown_memtocore[INST_ACC_R] = 616896 {136:4536,}
traffic_breakdown_memtocore[TEXTURE_ACC_R] = 388280 {136:2855,}
maxmrqlatency = 1139 
maxdqlatency = 0 
maxmflatency = 1898 
averagemflatency = 500 
max_icnt2mem_latency = 1349 
max_icnt2sh_latency = 650928 
mrq_lat_table:64487 	5636 	5475 	11164 	27239 	38121 	42005 	26291 	4932 	76 	1 	0 	0 	0 	0 	0 	0 	0 	0 	0 	0 	0 	0 	0 	0 	0 	0 	0 	0 	0 	0 	0 	
dq_lat_table:0 	0 	0 	0 	0 	0 	0 	0 	0 	0 	0 	0 	0 	0 	0 	0 	0 	0 	0 	0 	0 	0 	0 	0 	0 	0 	0 	0 	0 	0 	0 	0 	
mf_lat_table:0 	0 	0 	0 	1081 	899 	145 	16620 	70844 	73455 	3169 	0 	0 	0 	0 	0 	0 	0 	0 	0 	0 	0 	0 	0 	0 	0 	0 	0 	0 	0 	0 	0 	
icnt2mem_lat_table:0 	0 	0 	12033 	4113 	16846 	70808 	31524 	33623 	1798 	4 	0 	0 	0 	0 	0 	0 	0 	0 	0 	0 	0 	0 	0 	
icnt2sh_lat_table:0 	0 	0 	30122 	13076 	1933 	127 	0 	0 	0 	0 	0 	0 	0 	0 	3032 	5976 	9008 	21008 	81931 	0 	0 	0 	0 	
mf_lat_pw_table:0 	0 	0 	0 	0 	0 	0 	0 	1 	1 	0 	0 	0 	0 	0 	0 	0 	0 	0 	0 	0 	0 	0 	0 	0 	0 	0 	0 	0 	0 	0 	0 	
maximum concurrent accesses to same row:
dram[0]:        60        65        57        61        54        74        60        57        62        70        56        68        77        65        74        65 
dram[1]:        63        53        61        61        62        42        64        58        58        67        50        71        73        62        69        65 
dram[2]:        58        75        56        64        59        65        62        66        66        71        59        69        75        67        67        66 
dram[3]:        64        60        57        60        58        55        66        53        63        72        62        64        65        72        73        75 
dram[4]:        66        56        58        62        69        52        50        55        66        68        65        61        68        70        58        75 
dram[5]:        62        58        57        67        57        55        54        54        64        67        67        64        62        67        71        75 
maximum service time to same row:
dram[0]:     74054     40442     39299     40100     34958     36105     39035     39243     39624     75625     38464     75186     75131     74388     76259     39680 
dram[1]:     70787     38407     39057     40276     35380     35894     39033     39248     74564     39344     74178     74776     39841     39662     39762     75850 
dram[2]:     39393     39823     39116     39004     36958     37528     39049     38625     73691     75270     73887     42542     40672     39878     76375     75172 
dram[3]:     39565     38771     39395     38911     37192     38646     38756     36800     38804     75379     38599     74301     39818     74650     74644     76527 
dram[4]:     40160     38866     39656     38943     36354     34807     36629     35739     74100     39210     75301     74196     39226     40215     40572     76776 
dram[5]:     40192     39032     39892     40121     37716     38427     39082     36456     74068     75005     75189     74835     39268     39667     42029     76255 
average row accesses per activate:
dram[0]:  2.046392  2.060367  2.079086  2.069911  2.028470  2.106145  2.038261  2.025795  2.043937  2.014680  2.078901  2.098246  2.122980  2.175069  2.102113  2.085463 
dram[1]:  2.083112  2.079199  2.135531  2.089618  1.998250  2.066303  1.990686  2.055409  2.032929  2.026247  2.096120  2.113292  2.061029  2.114082  2.105169  2.059637 
dram[2]:  2.049011  2.084806  2.084295  2.075088  2.031194  2.081056  2.039439  2.026609  2.078924  2.044425  2.079895  2.086268  2.108252  2.130199  2.077459  2.158715 
dram[3]:  2.077261  2.029838  2.105735  2.051800  2.005263  2.067395  2.017065  2.027899  2.011188  2.062665  2.057341  2.116548  2.139217  2.105217  2.163904  2.078329 
dram[4]:  2.041237  2.066030  2.087500  2.055798  2.083948  2.041815  2.070671  2.038860  2.081033  2.024390  2.087642  2.095745  2.108060  2.112309  2.103357  2.160698 
dram[5]:  2.077526  2.082892  2.044232  2.055556  2.072398  2.031446  2.007679  2.049522  2.018245  2.031196  2.082593  2.034247  2.086726  2.129118  2.149091  2.108734 
average row locality = 225427/108803 = 2.071882
number of total memory accesses made:
dram[0]:         0         0         0         0         0         0         0         0         0         0         0         0         0         0         0         0 
dram[1]:         0         0         0         0         0         0         0         0         0         0         0         0         0         0         0         0 
dram[2]:         0         0         0         0         0         0         0         0         0         0         0         0         0         0         0         0 
dram[3]:         0         0         0         0         0         0         0         0         0         0         0         0         0         0         0         0 
dram[4]:         0         0         0         0         0         0         0         0         0         0         0         0         0         0         0         0 
dram[5]:         0         0         0         0         0         0         0         0         0         0         0         0         0         0         0         0 
total accesses: 0
min_bank_accesses = 0!
min_chip_accesses = 0!
number of total read accesses:
dram[0]:      1141      1123      1128      1110      1086      1065      1157      1157      1125      1129      1114      1143      1120      1134      1134      1134 
dram[1]:      1124      1145      1102      1121      1079      1086      1157      1154      1139      1113      1136      1122      1132      1127      1125      1136 
dram[2]:      1140      1123      1118      1111      1084      1081      1144      1167      1118      1137      1121      1136      1132      1128      1140      1118 
dram[3]:      1124      1139      1113      1113      1088      1076      1167      1142      1137      1120      1130      1131      1121      1138      1115      1140 
dram[4]:      1139      1130      1112      1120      1069      1095      1150      1169      1126      1127      1137      1123      1136      1117      1138      1116 
dram[5]:      1136      1133      1121      1105      1089      1071      1165      1160      1125      1133      1115      1133      1119      1141      1119      1134 
total reads: 107993
bank skew: 1169/1065 = 1.10
chip skew: 18004/17994 = 1.00
number of total write accesses:
dram[0]:      1241      1232      1238      1229      1194      1197      1187      1199      1201      1204      1231      1249      1245      1239      1254      1233 
dram[1]:      1232      1244      1230      1234      1205      1189      1194      1183      1207      1203      1241      1247      1232      1245      1237      1247 
dram[2]:      1243      1237      1231      1238      1195      1204      1183      1194      1200      1210      1248      1234      1244      1228      1247      1235 
dram[3]:      1242      1242      1237      1224      1198      1194      1197      1184      1200      1217      1238      1248      1230      1243      1235      1248 
dram[4]:      1237      1248      1226      1238      1190      1200      1194      1192      1211      1197      1245      1241      1244      1234      1243      1237 
dram[5]:      1249      1229      1236      1226      1201      1190      1188      1199      1198      1211      1230      1243      1239      1250      1245      1232 
total reads: 117434
bank skew: 1254/1183 = 1.06
chip skew: 19577/19566 = 1.00
average mf latency per bank:
dram[0]:        365       364       365       368       380       379       390       385       369       372       371       365       379       380       385       382
dram[1]:        349       357       352       352       360       365       369       385       352       360       358       363       362       368       365       364
dram[2]:        371       364       379       361       390       389       400       389       381       365       384       367       384       371       402       386
dram[3]:        356       363       358       370       368       392       377       386       358       372       361       372       365       376       375       386
dram[4]:        370       363       371       366       380       387       401       385       375       376       377       375       382       376       386       389
dram[5]:        360       373       372       377       387       393       388       395       369       375       369       379       376       385       379       388
maximum mf latency per bank:
dram[0]:       1706      1453      1349      1398      1497      1325      1428      1335      1513      1480      1377      1327      1324      1560      1441      1374
dram[1]:       1390      1657      1252      1378      1175      1278      1302      1536      1282      1335      1310      1453      1276      1348      1190      1292
dram[2]:       1585      1242      1324      1217      1478      1342      1510      1430      1319      1365      1485      1441      1604      1322      1615      1299
dram[3]:       1545      1393      1265      1672      1214      1408      1440      1386      1338      1248      1303      1543      1407      1596      1360      1439
dram[4]:       1450      1576      1372      1544      1309      1427      1898      1456      1499      1418      1622      1464      1605      1533      1329      1358
dram[5]:       1325      1491      1339      1345      1500      1408      1239      1798      1390      1330      1381      1292      1374      1609      1377      1320
Memory Partition 0: 
Cache L2_bank_000:
MSHR contents

Cache L2_bank_001:
MSHR contents

In Dram Latency Queue (total = 0): 
DRAM[0]: 16 bks, busW=4 BL=8 CL=12, tRRD=2 tCCD=6, tRCD=12 tRAS=28 tRP=12 tRC=40
n_cmd=847096 n_nop=741416 n_act=18126 n_pre=18110 n_req=37573 n_rd=36000 n_write=33444 bw_util=0.164
n_activity=240677 dram_eff=0.5771
bk0: 2282a 740398i bk1: 2246a 739318i bk2: 2256a 737639i bk3: 2220a 735715i bk4: 2172a 733732i bk5: 2130a 735754i bk6: 2314a 733007i bk7: 2314a 728297i bk8: 2250a 744501i bk9: 2258a 739523i bk10: 2228a 736384i bk11: 2286a 731680i bk12: 2240a 730323i bk13: 2268a 730169i bk14: 2268a 725843i bk15: 2268a 725100i 
dram_util_bins: 0 0 0 0 0 0 0 0 0 0
dram_eff_bins: 0 0 0 0 0 0 0 0 0 0
mrqq: max=16 avg=3.2162
Memory Partition 1: 
Cache L2_bank_002:
MSHR contents

Cache L2_bank_003:
MSHR contents

In Dram Latency Queue (total = 0): 
DRAM[1]: 16 bks, busW=4 BL=8 CL=12, tRRD=2 tCCD=6, tRCD=12 tRAS=28 tRP=12 tRC=40
n_cmd=847096 n_nop=741359 n_act=18161 n_pre=18145 n_req=37568 n_rd=35996 n_write=33435 bw_util=0.1639
n_activity=240814 dram_eff=0.5766
bk0: 2248a 740764i bk1: 2290a 738789i bk2: 2204a 737743i bk3: 2242a 735508i bk4: 2158a 737216i bk5: 2172a 734924i bk6: 2314a 730045i bk7: 2308a 727662i bk8: 2278a 744798i bk9: 2226a 742809i bk10: 2272a 735561i bk11: 2244a 732830i bk12: 2264a 731620i bk13: 2254a 728837i bk14: 2250a 726074i bk15: 2272a 727168i 
dram_util_bins: 0 0 0 0 0 0 0 0 0 0
dram_eff_bins: 0 0 0 0 0 0 0 0 0 0
mrqq: max=16 avg=3.17871
Memory Partition 2: 
Cache L2_bank_004:
MSHR contents

Cache L2_bank_005:
MSHR contents

In Dram Latency Queue (total = 0): 
DRAM[2]: 16 bks, busW=4 BL=8 CL=12, tRRD=2 tCCD=6, tRCD=12 tRAS=28 tRP=12 tRC=40
n_cmd=847096 n_nop=741499 n_act=18090 n_pre=18074 n_req=37569 n_rd=35996 n_write=33437 bw_util=0.1639
n_activity=241196 dram_eff=0.5757
bk0: 2280a 741588i bk1: 2246a 738122i bk2: 2236a 739283i bk3: 2222a 736063i bk4: 2168a 736435i bk5: 2162a 733357i bk6: 2288a 733025i bk7: 2334a 728629i bk8: 2236a 745569i bk9: 2274a 739569i bk10: 2242a 736184i bk11: 2272a 732222i bk12: 2264a 731221i bk13: 2256a 733089i bk14: 2280a 725637i bk15: 2236a 725534i 
dram_util_bins: 0 0 0 0 0 0 0 0 0 0
dram_eff_bins: 0 0 0 0 0 0 0 0 0 0
mrqq: max=16 avg=3.19463
Memory Partition 3: 
Cache L2_bank_006:
MSHR contents

Cache L2_bank_007:
MSHR contents

In Dram Latency Queue (total = 0): 
DRAM[3]: 16 bks, busW=4 BL=8 CL=12, tRRD=2 tCCD=6, tRCD=12 tRAS=28 tRP=12 tRC=40
n_cmd=847096 n_nop=741342 n_act=18159 n_pre=18143 n_req=37571 n_rd=35988 n_write=33464 bw_util=0.164
n_activity=241564 dram_eff=0.575
bk0: 2248a 742970i bk1: 2278a 737938i bk2: 2226a 736397i bk3: 2226a 736305i bk4: 2176a 734680i bk5: 2152a 735547i bk6: 2334a 730924i bk7: 2284a 728357i bk8: 2274a 744985i bk9: 2240a 740798i bk10: 2260a 734811i bk11: 2262a 734581i bk12: 2242a 729951i bk13: 2276a 728060i bk14: 2230a 726511i bk15: 2280a 723234i 
dram_util_bins: 0 0 0 0 0 0 0 0 0 0
dram_eff_bins: 0 0 0 0 0 0 0 0 0 0
mrqq: max=16 avg=3.18068
Memory Partition 4: 
Cache L2_bank_008:
MSHR contents

Cache L2_bank_009:
MSHR contents

In Dram Latency Queue (total = 0): 
DRAM[4]: 16 bks, busW=4 BL=8 CL=12, tRRD=2 tCCD=6, tRCD=12 tRAS=28 tRP=12 tRC=40
n_cmd=847096 n_nop=741481 n_act=18083 n_pre=18067 n_req=37581 n_rd=36008 n_write=33457 bw_util=0.164
n_activity=241384 dram_eff=0.5756
bk0: 2278a 743653i bk1: 2260a 740696i bk2: 2224a 739574i bk3: 2240a 735290i bk4: 2138a 737857i bk5: 2190a 734575i bk6: 2300a 730049i bk7: 2338a 729172i bk8: 2252a 743187i bk9: 2254a 742058i bk10: 2274a 736676i bk11: 2246a 733230i bk12: 2272a 731326i bk13: 2234a 731738i bk14: 2276a 728396i bk15: 2232a 726310i 
dram_util_bins: 0 0 0 0 0 0 0 0 0 0
dram_eff_bins: 0 0 0 0 0 0 0 0 0 0
mrqq: max=16 avg=3.18715
Memory Partition 5: 
Cache L2_bank_010:
MSHR contents

Cache L2_bank_011:
MSHR contents

In Dram Latency Queue (total = 0): 
DRAM[5]: 16 bks, busW=4 BL=8 CL=12, tRRD=2 tCCD=6, tRCD=12 tRAS=28 tRP=12 tRC=40
n_cmd=847096 n_nop=741281 n_act=18184 n_pre=18168 n_req=37565 n_rd=35998 n_write=33465 bw_util=0.164
n_activity=240700 dram_eff=0.5772
bk0: 2272a 743220i bk1: 2266a 740875i bk2: 2242a 736500i bk3: 2210a 735025i bk4: 2178a 736014i bk5: 2142a 735260i bk6: 2330a 730929i bk7: 2320a 728144i bk8: 2250a 742770i bk9: 2266a 740278i bk10: 2230a 737044i bk11: 2266a 731436i bk12: 2238a 731100i bk13: 2282a 727911i bk14: 2238a 729028i bk15: 2268a 725266i 
dram_util_bins: 0 0 0 0 0 0 0 0 0 0
dram_eff_bins: 0 0 0 0 0 0 0 0 0 0
mrqq: max=16 avg=3.20671

========= L2 cache stats =========
L2_cache_bank[0]: Access = 14264, Miss = 9005, Miss_rate = 0.631, Pending_hits = 692, Reservation_fails = 941
L2_cache_bank[1]: Access = 14230, Miss = 8995, Miss_rate = 0.632, Pending_hits = 690, Reservation_fails = 653
L2_cache_bank[2]: Access = 14285, Miss = 8994, Miss_rate = 0.630, Pending_hits = 686, Reservation_fails = 862
L2_cache_bank[3]: Access = 14249, Miss = 9004, Miss_rate = 0.632, Pending_hits = 715, Reservation_fails = 675
L2_cache_bank[4]: Access = 14288, Miss = 8997, Miss_rate = 0.630, Pending_hits = 697, Reservation_fails = 2212
L2_cache_bank[5]: Access = 14226, Miss = 9001, Miss_rate = 0.633, Pending_hits = 697, Reservation_fails = 1035
L2_cache_bank[6]: Access = 14301, Miss = 8995, Miss_rate = 0.629, Pending_hits = 687, Reservation_fails = 896
L2_cache_bank[7]: Access = 14250, Miss = 8999, Miss_rate = 0.632, Pending_hits = 694, Reservation_fails = 555
L2_cache_bank[8]: Access = 14305, Miss = 9007, Miss_rate = 0.630, Pending_hits = 689, Reservation_fails = 846
L2_cache_bank[9]: Access = 14264, Miss = 8997, Miss_rate = 0.631, Pending_hits = 709, Reservation_fails = 426
L2_cache_bank[10]: Access = 14229, Miss = 8989, Miss_rate = 0.632, Pending_hits = 651, Reservation_fails = 970
L2_cache_bank[11]: Access = 13858, Miss = 9010, Miss_rate = 0.650, Pending_hits = 674, Reservation_fails = 1001
L2_total_cache_accesses = 170749
L2_total_cache_misses = 107993
L2_total_cache_miss_rate = 0.6325
L2_total_cache_pending_hits = 8281
L2_total_cache_reservation_fails = 11072
L2_total_cache_breakdown:
	L2_cache_stats_breakdown[GLOBAL_ACC_R][HIT] = 5821
	L2_cache_stats_breakdown[GLOBAL_ACC_R][HIT_RESERVED] = 278
	L2_cache_stats_breakdown[GLOBAL_ACC_R][MISS] = 36289
	L2_cache_stats_breakdown[GLOBAL_ACC_R][RESERVATION_FAIL] = 3485
	L2_cache_stats_breakdown[CONST_ACC_R][HIT] = 11
	L2_cache_stats_breakdown[CONST_ACC_R][HIT_RESERVED] = 3
	L2_cache_stats_breakdown[CONST_ACC_R][MISS] = 1
	L2_cache_stats_breakdown[CONST_ACC_R][RESERVATION_FAIL] = 110
	L2_cache_stats_breakdown[TEXTURE_ACC_R][HIT] = 2476
	L2_cache_stats_breakdown[TEXTURE_ACC_R][HIT_RESERVED] = 180
	L2_cache_stats_breakdown[TEXTURE_ACC_R][MISS] = 199
	L2_cache_stats_breakdown[TEXTURE_ACC_R][RESERVATION_FAIL] = 1134
	L2_cache_stats_breakdown[GLOBAL_ACC_W][HIT] = 41765
	L2_cache_stats_breakdown[GLOBAL_ACC_W][HIT_RESERVED] = 7720
	L2_cache_stats_breakdown[GLOBAL_ACC_W][MISS] = 71470
	L2_cache_stats_breakdown[GLOBAL_ACC_W][RESERVATION_FAIL] = 3395
	L2_cache_stats_breakdown[INST_ACC_R][HIT] = 4402
	L2_cache_stats_breakdown[INST_ACC_R][HIT_RESERVED] = 100
	L2_cache_stats_breakdown[INST_ACC_R][MISS] = 34
	L2_cache_stats_breakdown[INST_ACC_R][RESERVATION_FAIL] = 2948
L2_cache_data_port_util = 0.028
L2_cache_fill_port_util = 0.055

icnt_total_pkts_mem_to_simt=369895
icnt_total_pkts_simt_to_mem=506342
LD_mem_lat_dist  0 0 0 0 0 0 0 0 0 0 0 0 0 0 0 0 0 0 0 0 0 0 0 0 0 0 0
ST_mem_lat_dist  0 0 0 0 0 0 0 0 0 0 0 0 0 0 0 0 0 0 0 0 0 0 0 0 0 0 0
----------------------------Interconnect-DETAILS--------------------------------
Class 0:
Packet latency average = 42.3037
	minimum = 6
	maximum = 926
Network latency average = 27.6353
	minimum = 6
	maximum = 804
Slowest packet = 296968
Flit latency average = 24.9206
	minimum = 6
	maximum = 804
Slowest flit = 765202
Fragmentation average = 0.387141
	minimum = 0
	maximum = 327
Injected packet rate average = 0.0700447
	minimum = 0.0564503 (at node 1)
	maximum = 0.0796827 (at node 21)
Accepted packet rate average = 0.0700447
	minimum = 0.0564503 (at node 1)
	maximum = 0.0796827 (at node 21)
Injected flit rate average = 0.17656
	minimum = 0.159647 (at node 1)
	maximum = 0.18896 (at node 11)
Accepted flit rate average= 0.17656
	minimum = 0.126832 (at node 1)
	maximum = 0.222419 (at node 21)
Injected packet length average = 2.52067
Accepted packet length average = 2.52067
Total in-flight flits = 0 (0 measured)
====== Overall Traffic Statistics ======
====== Traffic class 0 ======
Packet latency average = 34.8691 (3 samples)
	minimum = 6 (3 samples)
	maximum = 690 (3 samples)
Network latency average = 23.1908 (3 samples)
	minimum = 6 (3 samples)
	maximum = 605.333 (3 samples)
Flit latency average = 21.1183 (3 samples)
	minimum = 6 (3 samples)
	maximum = 605 (3 samples)
Fragmentation average = 0.283182 (3 samples)
	minimum = 0 (3 samples)
	maximum = 349.667 (3 samples)
Injected packet rate average = 0.0508835 (3 samples)
	minimum = 0.0410408 (3 samples)
	maximum = 0.0577253 (3 samples)
Accepted packet rate average = 0.0508835 (3 samples)
	minimum = 0.0410408 (3 samples)
	maximum = 0.0577253 (3 samples)
Injected flit rate average = 0.129087 (3 samples)
	minimum = 0.112456 (3 samples)
	maximum = 0.13842 (3 samples)
Accepted flit rate average = 0.129087 (3 samples)
	minimum = 0.092276 (3 samples)
	maximum = 0.160836 (3 samples)
Injected packet size average = 2.5369 (3 samples)
Accepted packet size average = 2.5369 (3 samples)
Hops average = 1 (3 samples)
----------------------------END-of-Interconnect-DETAILS-------------------------


gpgpu_simulation_time = 0 days, 0 hrs, 9 min, 0 sec (540 sec)
gpgpu_simulation_rate = 520642 (inst/sec)
gpgpu_simulation_rate = 1205 (cycle/sec)
event update
GPGPU-Sim API: cudaEventSynchronize ** waiting for event
GPGPU-Sim API: cudaEventSynchronize ** event detected
